6e
     RDKit          3D

 41 43  0  0  0  0  0  0  0  0999 V2000
   13.9480    2.7980    9.8870 C   0  0  0  0  0  0  0  0  0  0  0  0
   19.3200   -3.1410    1.9380 C   0  0  0  0  0  0  0  0  0  0  0  0
   19.2130   -0.8270   10.8090 C   0  0  0  0  0  0  0  0  0  0  0  0
   13.8350    3.9800    9.1610 C   0  0  0  0  0  0  0  0  0  0  0  0
   18.6320   -2.5130    2.9870 C   0  0  0  0  0  0  0  0  0  0  0  0
   18.9740   -1.3450    9.5300 C   0  0  0  0  0  0  0  0  0  0  0  0
   14.8950    1.8450    9.5120 C   0  0  0  0  0  0  0  0  0  0  0  0
   20.4510   -3.9250    2.2110 C   0  0  0  0  0  0  0  0  0  0  0  0
   15.6790    3.2890    7.6790 C   0  0  0  0  0  0  0  0  0  0  0  0
   20.2100   -3.4120    4.5740 C   0  0  0  0  0  0  0  0  0  0  0  0
   18.6160    0.3800   11.1810 C   0  0  0  0  0  0  0  0  0  0  0  0
   14.6920    4.2110    8.0830 C   0  0  0  0  0  0  0  0  0  0  0  0
   19.0610   -2.6340    4.3200 C   0  0  0  0  0  0  0  0  0  0  0  0
   18.1440   -0.6620    8.6170 C   0  0  0  0  0  0  0  0  0  0  0  0
   15.7890    2.0930    8.4540 C   0  0  0  0  0  0  0  0  0  0  0  0
   20.9090   -4.0370    3.5340 C   0  0  0  0  0  0  0  0  0  0  0  0
   17.5480    0.5430    9.0210 C   0  0  0  0  0  0  0  0  0  0  0  0
   18.7480   -1.7520    6.5550 C   0  0  0  0  0  0  0  0  0  0  0  0
   17.7940    1.0570   10.2520 N   0  0  0  0  0  0  0  0  0  0  0  0
   18.3500   -1.9640    5.2670 N   0  0  0  0  0  0  0  0  0  0  0  0
   17.8710   -1.0600    7.3410 N   0  0  0  0  0  0  0  0  0  0  0  0
   19.7850   -2.2390    7.0160 O   0  0  0  0  0  0  0  0  0  0  0  0
   16.7350    1.1560    8.0870 O   0  0  0  0  0  0  0  0  0  0  0  0
   13.3056    2.6195   10.7366 H   0  0  0  0  0  0  0  0  0  0  0  0
   18.9790   -3.0209    0.9203 H   0  0  0  0  0  0  0  0  0  0  0  0
   19.8524   -1.3553   11.5007 H   0  0  0  0  0  0  0  0  0  0  0  0
   13.0894    4.7137    9.4296 H   0  0  0  0  0  0  0  0  0  0  0  0
   17.7542   -1.9241    2.7656 H   0  0  0  0  0  0  0  0  0  0  0  0
   19.4311   -2.2793    9.2392 H   0  0  0  0  0  0  0  0  0  0  0  0
   14.9427    0.9044   10.0406 H   0  0  0  0  0  0  0  0  0  0  0  0
   20.9647   -4.4377    1.4112 H   0  0  0  0  0  0  0  0  0  0  0  0
   16.3182    3.4764    6.8289 H   0  0  0  0  0  0  0  0  0  0  0  0
   20.5572   -3.5278    5.5901 H   0  0  0  0  0  0  0  0  0  0  0  0
   18.7806    0.7906   12.1663 H   0  0  0  0  0  0  0  0  0  0  0  0
   17.4517   -1.5921    4.9936 H   0  0  0  0  0  0  0  0  0  0  0  0
   16.9668   -0.8293    6.9546 H   0  0  0  0  0  0  0  0  0  0  0  0
   14.7252    5.5284    7.2850 C   0  0  0  0  0  0  0  0  0  0  0  0
   13.9962    6.5378    7.8333 F   0  0  0  0  0  0  0  0  0  0  0  0
   15.9895    6.0419    7.1412 F   0  0  0  0  0  0  0  0  0  0  0  0
   14.2635    5.3822    6.0085 F   0  0  0  0  0  0  0  0  0  0  0  0
   22.2530   -5.0675    3.8369 Cl  0  0  0  0  0  0  0  0  0  0  0  0
  1  4  2  0
  1  7  1  0
  1 24  1  0
  2  5  2  0
  2  8  1  0
  2 25  1  0
  3  6  2  0
  3 11  1  0
  3 26  1  0
  4 12  1  0
  4 27  1  0
  5 13  1  0
  5 28  1  0
  6 14  1  0
  6 29  1  0
  7 15  2  0
  7 30  1  0
  8 16  2  0
  8 31  1  0
  9 12  2  0
  9 15  1  0
  9 32  1  0
 10 13  2  0
 10 16  1  0
 10 33  1  0
 11 19  2  0
 11 34  1  0
 12 37  1  0
 13 20  1  0
 14 17  2  0
 14 21  1  0
 15 23  1  0
 16 41  1  0
 17 19  1  0
 17 23  1  0
 18 20  1  0
 18 21  1  0
 18 22  2  0
 20 35  1  0
 21 36  1  0
 37 38  1  0
 37 39  1  0
 37 40  1  0
M  END
>  <Id>  (1) 
6e

>  <IUPAC>  (1) 
1-(3-Chlorophenyl)-3-(2-(3-(trifluoromethyl)phenoxy)pyridin-3-yl)urea

>  <Structure>  (1) 
Clc1cc(NC(=O)Nc2c(Oc3cc(C(F)(F)F)ccc3)nccc2)ccc1

>  <R1>  (1) 
3-Cl-Ph

>  <R2>  (1) 
3-CF3

>  <X>  (1) 
O

>  <hP2Y1Ki_nM>  (1) 
128

>  <SEM_hP2Y1Ki_nM>  (1) 
45.0

$$$$
14
     RDKit          3D

 54 56  0  0  0  0  0  0  0  0999 V2000
   13.8353    3.9803    9.1609 C   0  0  0  0  0  0  0  0  0  0  0  0
   13.9482    2.7982    9.8869 C   0  0  0  0  0  0  0  0  0  0  0  0
   19.2130   -0.8270   10.8090 C   0  0  0  0  0  0  0  0  0  0  0  0
   14.6924    4.2112    8.0830 C   0  0  0  0  0  0  0  0  0  0  0  0
   19.3200   -3.1410    1.9380 C   0  0  0  0  0  0  0  0  0  0  0  0
   20.9090   -4.0370    3.5340 C   0  0  0  0  0  0  0  0  0  0  0  0
   14.8952    1.8452    9.5119 C   0  0  0  0  0  0  0  0  0  0  0  0
   18.9740   -1.3450    9.5300 C   0  0  0  0  0  0  0  0  0  0  0  0
   18.6320   -2.5130    2.9870 C   0  0  0  0  0  0  0  0  0  0  0  0
   20.2100   -3.4120    4.5740 C   0  0  0  0  0  0  0  0  0  0  0  0
   18.6160    0.3800   11.1810 C   0  0  0  0  0  0  0  0  0  0  0  0
   20.4510   -3.9250    2.2110 C   0  0  0  0  0  0  0  0  0  0  0  0
   15.6794    3.2892    7.6790 C   0  0  0  0  0  0  0  0  0  0  0  0
   19.0610   -2.6340    4.3200 C   0  0  0  0  0  0  0  0  0  0  0  0
   15.7892    2.0931    8.4539 C   0  0  0  0  0  0  0  0  0  0  0  0
   18.1440   -0.6620    8.6170 C   0  0  0  0  0  0  0  0  0  0  0  0
   17.5480    0.5430    9.0210 C   0  0  0  0  0  0  0  0  0  0  0  0
   18.7480   -1.7520    6.5550 C   0  0  0  0  0  0  0  0  0  0  0  0
   17.7940    1.0570   10.2520 N   0  0  0  0  0  0  0  0  0  0  0  0
   18.3500   -1.9640    5.2670 N   0  0  0  0  0  0  0  0  0  0  0  0
   17.8710   -1.0600    7.3410 N   0  0  0  0  0  0  0  0  0  0  0  0
   19.7850   -2.2390    7.0160 O   0  0  0  0  0  0  0  0  0  0  0  0
   13.0914    4.7215    9.4367 H   0  0  0  0  0  0  0  0  0  0  0  0
   13.2905    2.6107   10.7297 H   0  0  0  0  0  0  0  0  0  0  0  0
   19.8483   -1.3617   11.5076 H   0  0  0  0  0  0  0  0  0  0  0  0
   14.5413    5.1565    7.5728 H   0  0  0  0  0  0  0  0  0  0  0  0
   18.9626   -3.0253    0.9184 H   0  0  0  0  0  0  0  0  0  0  0  0
   21.7956   -4.6212    3.7650 H   0  0  0  0  0  0  0  0  0  0  0  0
   14.9402    0.9089   10.0628 H   0  0  0  0  0  0  0  0  0  0  0  0
   19.4312   -2.2945    9.2732 H   0  0  0  0  0  0  0  0  0  0  0  0
   17.7527   -1.9181    2.7479 H   0  0  0  0  0  0  0  0  0  0  0  0
   20.5929   -3.5689    5.5730 H   0  0  0  0  0  0  0  0  0  0  0  0
   18.7546    0.8312   12.1527 H   0  0  0  0  0  0  0  0  0  0  0  0
   17.4694   -1.5445    4.9829 H   0  0  0  0  0  0  0  0  0  0  0  0
   16.9930   -0.7862    6.9155 H   0  0  0  0  0  0  0  0  0  0  0  0
   21.1301   -4.6030    1.1530 C   0  0  0  0  0  0  0  0  0  0  0  0
   16.6989    2.7674    5.3960 C   0  0  0  0  0  0  0  0  0  0  0  0
   18.1901    3.8093    7.1419 C   0  0  0  0  0  0  0  0  0  0  0  0
   16.5226    5.1613    5.9612 C   0  0  0  0  0  0  0  0  0  0  0  0
   16.7407    3.7422    6.5841 C   0  0  0  0  0  0  0  0  0  0  0  0
   16.7352    1.1561    8.0869 N   0  0  0  0  0  0  0  0  0  0  0  0
   21.9901   -5.1718    1.5219 H   0  0  0  0  0  0  0  0  0  0  0  0
   21.5034   -3.8891    0.4114 H   0  0  0  0  0  0  0  0  0  0  0  0
   20.4603   -5.3096    0.6520 H   0  0  0  0  0  0  0  0  0  0  0  0
   15.6806    2.6958    5.0005 H   0  0  0  0  0  0  0  0  0  0  0  0
   17.3491    3.1028    4.5770 H   0  0  0  0  0  0  0  0  0  0  0  0
   17.0329    1.7662    5.6744 H   0  0  0  0  0  0  0  0  0  0  0  0
   18.2623    4.5136    7.9795 H   0  0  0  0  0  0  0  0  0  0  0  0
   18.5616    2.8410    7.4797 H   0  0  0  0  0  0  0  0  0  0  0  0
   18.8978    4.1589    6.3734 H   0  0  0  0  0  0  0  0  0  0  0  0
   16.6312    5.9595    6.7054 H   0  0  0  0  0  0  0  0  0  0  0  0
   17.2703    5.3725    5.1794 H   0  0  0  0  0  0  0  0  0  0  0  0
   15.5424    5.2537    5.4846 H   0  0  0  0  0  0  0  0  0  0  0  0
   16.8975    0.8908    7.1492 H   0  0  0  0  0  0  0  0  0  0  0  0
  1  2  2  0
  1  4  1  0
  1 23  1  0
  2  7  1  0
  2 24  1  0
  3  8  2  0
  3 11  1  0
  3 25  1  0
  4 13  2  0
  4 26  1  0
  5  9  2  0
  5 12  1  0
  5 27  1  0
  6 10  1  0
  6 12  2  0
  6 28  1  0
  7 15  2  0
  7 29  1  0
  8 16  1  0
  8 30  1  0
  9 14  1  0
  9 31  1  0
 10 14  2  0
 10 32  1  0
 11 19  2  0
 11 33  1  0
 12 36  1  0
 13 15  1  0
 13 40  1  0
 14 20  1  0
 15 41  1  0
 16 17  2  0
 16 21  1  0
 17 19  1  0
 17 41  1  0
 18 20  1  0
 18 21  1  0
 18 22  2  0
 20 34  1  0
 21 35  1  0
 36 42  1  0
 36 43  1  0
 36 44  1  0
 37 40  1  0
 37 45  1  0
 37 46  1  0
 37 47  1  0
 38 40  1  0
 38 48  1  0
 38 49  1  0
 38 50  1  0
 39 40  1  0
 39 51  1  0
 39 52  1  0
 39 53  1  0
 41 54  1  0
M  END
>  <Id>  (2) 
14

>  <IUPAC>  (2) 
1-(2-(2-tert-Butylphenylamino)pyridin-3-yl)-3-p-tolylurea

>  <Structure>  (2) 
O=C(Nc1c(Nc2c(C(C)(C)C)cccc2)nccc1)Nc1ccc(C)cc1

>  <R1>  (2) 
4-MePh

>  <R2>  (2) 
2-t-Bu

>  <X>  (2) 
NH

>  <hP2Y1Ki_nM>  (2) 
175

>  <SEM_hP2Y1Ki_nM>  (2) 
40.0

$$$$
1
     RDKit          3D

 41 43  0  0  0  0  0  0  0  0999 V2000
   13.9480    2.7980    9.8870 C   0  0  0  0  0  0  0  0  0  0  0  0
   19.2130   -0.8270   10.8090 C   0  0  0  0  0  0  0  0  0  0  0  0
   13.8350    3.9800    9.1610 C   0  0  0  0  0  0  0  0  0  0  0  0
   18.9740   -1.3450    9.5300 C   0  0  0  0  0  0  0  0  0  0  0  0
   20.2100   -3.4120    4.5740 C   0  0  0  0  0  0  0  0  0  0  0  0
   14.8950    1.8450    9.5120 C   0  0  0  0  0  0  0  0  0  0  0  0
   20.9090   -4.0370    3.5340 C   0  0  0  0  0  0  0  0  0  0  0  0
   15.6790    3.2890    7.6790 C   0  0  0  0  0  0  0  0  0  0  0  0
   19.3200   -3.1410    1.9380 C   0  0  0  0  0  0  0  0  0  0  0  0
   18.6160    0.3800   11.1810 C   0  0  0  0  0  0  0  0  0  0  0  0
   14.6920    4.2110    8.0830 C   0  0  0  0  0  0  0  0  0  0  0  0
   19.0610   -2.6340    4.3200 C   0  0  0  0  0  0  0  0  0  0  0  0
   18.1440   -0.6620    8.6170 C   0  0  0  0  0  0  0  0  0  0  0  0
   15.7890    2.0930    8.4540 C   0  0  0  0  0  0  0  0  0  0  0  0
   20.4510   -3.9250    2.2110 C   0  0  0  0  0  0  0  0  0  0  0  0
   18.6320   -2.5130    2.9870 C   0  0  0  0  0  0  0  0  0  0  0  0
   17.5480    0.5430    9.0210 C   0  0  0  0  0  0  0  0  0  0  0  0
   18.7480   -1.7520    6.5550 C   0  0  0  0  0  0  0  0  0  0  0  0
   17.7940    1.0570   10.2520 N   0  0  0  0  0  0  0  0  0  0  0  0
   18.3500   -1.9640    5.2670 N   0  0  0  0  0  0  0  0  0  0  0  0
   17.8710   -1.0600    7.3410 N   0  0  0  0  0  0  0  0  0  0  0  0
   19.7850   -2.2390    7.0160 O   0  0  0  0  0  0  0  0  0  0  0  0
   16.7350    1.1560    8.0870 O   0  0  0  0  0  0  0  0  0  0  0  0
   13.3056    2.6195   10.7366 H   0  0  0  0  0  0  0  0  0  0  0  0
   19.8524   -1.3553   11.5007 H   0  0  0  0  0  0  0  0  0  0  0  0
   13.0894    4.7137    9.4296 H   0  0  0  0  0  0  0  0  0  0  0  0
   19.4311   -2.2793    9.2392 H   0  0  0  0  0  0  0  0  0  0  0  0
   20.5572   -3.5278    5.5901 H   0  0  0  0  0  0  0  0  0  0  0  0
   14.9427    0.9044   10.0406 H   0  0  0  0  0  0  0  0  0  0  0  0
   21.8014   -4.6059    3.7495 H   0  0  0  0  0  0  0  0  0  0  0  0
   16.3182    3.4764    6.8289 H   0  0  0  0  0  0  0  0  0  0  0  0
   18.9790   -3.0209    0.9203 H   0  0  0  0  0  0  0  0  0  0  0  0
   18.7806    0.7906   12.1663 H   0  0  0  0  0  0  0  0  0  0  0  0
   17.4517   -1.5921    4.9936 H   0  0  0  0  0  0  0  0  0  0  0  0
   16.9668   -0.8293    6.9546 H   0  0  0  0  0  0  0  0  0  0  0  0
   14.7252    5.5284    7.2850 C   0  0  0  0  0  0  0  0  0  0  0  0
   21.0931   -4.5370    1.2083 F   0  0  0  0  0  0  0  0  0  0  0  0
   17.5698   -1.7476    2.6953 F   0  0  0  0  0  0  0  0  0  0  0  0
   13.9962    6.5378    7.8333 F   0  0  0  0  0  0  0  0  0  0  0  0
   15.9895    6.0419    7.1412 F   0  0  0  0  0  0  0  0  0  0  0  0
   14.2635    5.3822    6.0085 F   0  0  0  0  0  0  0  0  0  0  0  0
  1  3  2  0
  1  6  1  0
  1 24  1  0
  2  4  2  0
  2 10  1  0
  2 25  1  0
  3 11  1  0
  3 26  1  0
  4 13  1  0
  4 27  1  0
  5  7  2  0
  5 12  1  0
  5 28  1  0
  6 14  2  0
  6 29  1  0
  7 15  1  0
  7 30  1  0
  8 11  2  0
  8 14  1  0
  8 31  1  0
  9 15  2  0
  9 16  1  0
  9 32  1  0
 10 19  2  0
 10 33  1  0
 11 36  1  0
 12 16  2  0
 12 20  1  0
 13 17  2  0
 13 21  1  0
 14 23  1  0
 15 37  1  0
 16 38  1  0
 17 19  1  0
 17 23  1  0
 18 20  1  0
 18 21  1  0
 18 22  2  0
 20 34  1  0
 21 35  1  0
 36 39  1  0
 36 40  1  0
 36 41  1  0
M  END
>  <Id>  (3) 
1

>  <IUPAC>  (3) 
1-(2,4-Difluorophenyl)-3-(2-(3-(trifluoromethyl)phenoxy)pyridin-3-yl)urea

>  <Structure>  (3) 
FC(F)(F)c1cc(Oc2c(NC(=O)Nc3c(F)cc(F)cc3)cccn2)ccc1

>  <R1>  (3) 
2, 4-di-F-Ph

>  <R2>  (3) 
3-CF3

>  <X>  (3) 
O

>  <hP2Y1Ki_nM>  (3) 
75

>  <SEM_hP2Y1Ki_nM>  (3) 
5.0

$$$$
11f
     RDKit          3D

 41 43  0  0  0  0  0  0  0  0999 V2000
   13.8350    3.9800    9.1610 C   0  0  0  0  0  0  0  0  0  0  0  0
   13.9480    2.7980    9.8870 C   0  0  0  0  0  0  0  0  0  0  0  0
   19.2130   -0.8270   10.8090 C   0  0  0  0  0  0  0  0  0  0  0  0
   14.6920    4.2110    8.0830 C   0  0  0  0  0  0  0  0  0  0  0  0
   18.9740   -1.3450    9.5300 C   0  0  0  0  0  0  0  0  0  0  0  0
   20.2100   -3.4120    4.5740 C   0  0  0  0  0  0  0  0  0  0  0  0
   14.8950    1.8450    9.5120 C   0  0  0  0  0  0  0  0  0  0  0  0
   20.9090   -4.0370    3.5340 C   0  0  0  0  0  0  0  0  0  0  0  0
   19.3200   -3.1410    1.9380 C   0  0  0  0  0  0  0  0  0  0  0  0
   18.6160    0.3800   11.1810 C   0  0  0  0  0  0  0  0  0  0  0  0
   15.6790    3.2890    7.6790 C   0  0  0  0  0  0  0  0  0  0  0  0
   19.0610   -2.6340    4.3200 C   0  0  0  0  0  0  0  0  0  0  0  0
   18.1440   -0.6620    8.6170 C   0  0  0  0  0  0  0  0  0  0  0  0
   15.7890    2.0930    8.4540 C   0  0  0  0  0  0  0  0  0  0  0  0
   20.4510   -3.9250    2.2110 C   0  0  0  0  0  0  0  0  0  0  0  0
   18.6320   -2.5130    2.9870 C   0  0  0  0  0  0  0  0  0  0  0  0
   17.5480    0.5430    9.0210 C   0  0  0  0  0  0  0  0  0  0  0  0
   18.7480   -1.7520    6.5550 C   0  0  0  0  0  0  0  0  0  0  0  0
   17.7940    1.0570   10.2520 N   0  0  0  0  0  0  0  0  0  0  0  0
   18.3500   -1.9640    5.2670 N   0  0  0  0  0  0  0  0  0  0  0  0
   17.8710   -1.0600    7.3410 N   0  0  0  0  0  0  0  0  0  0  0  0
   19.7850   -2.2390    7.0160 O   0  0  0  0  0  0  0  0  0  0  0  0
   16.7350    1.1560    8.0870 O   0  0  0  0  0  0  0  0  0  0  0  0
   13.0894    4.7137    9.4296 H   0  0  0  0  0  0  0  0  0  0  0  0
   13.3056    2.6195   10.7366 H   0  0  0  0  0  0  0  0  0  0  0  0
   19.8524   -1.3553   11.5007 H   0  0  0  0  0  0  0  0  0  0  0  0
   14.5944    5.1364    7.5348 H   0  0  0  0  0  0  0  0  0  0  0  0
   19.4311   -2.2793    9.2392 H   0  0  0  0  0  0  0  0  0  0  0  0
   20.5572   -3.5278    5.5901 H   0  0  0  0  0  0  0  0  0  0  0  0
   14.9427    0.9044   10.0406 H   0  0  0  0  0  0  0  0  0  0  0  0
   21.8014   -4.6059    3.7495 H   0  0  0  0  0  0  0  0  0  0  0  0
   18.9790   -3.0209    0.9203 H   0  0  0  0  0  0  0  0  0  0  0  0
   18.7806    0.7906   12.1663 H   0  0  0  0  0  0  0  0  0  0  0  0
   17.4517   -1.5921    4.9936 H   0  0  0  0  0  0  0  0  0  0  0  0
   16.9668   -0.8293    6.9546 H   0  0  0  0  0  0  0  0  0  0  0  0
   16.5873    3.6111    6.5545 C   0  0  0  0  0  0  0  0  0  0  0  0
   21.0961   -4.5461    1.2143 F   0  0  0  0  0  0  0  0  0  0  0  0
   17.5839   -1.7340    2.6872 F   0  0  0  0  0  0  0  0  0  0  0  0
   17.8788    3.7285    6.9597 F   0  0  0  0  0  0  0  0  0  0  0  0
   16.5619    2.6552    5.5915 F   0  0  0  0  0  0  0  0  0  0  0  0
   16.2823    4.7826    5.9319 F   0  0  0  0  0  0  0  0  0  0  0  0
  1  2  2  0
  1  4  1  0
  1 24  1  0
  2  7  1  0
  2 25  1  0
  3  5  2  0
  3 10  1  0
  3 26  1  0
  4 11  2  0
  4 27  1  0
  5 13  1  0
  5 28  1  0
  6  8  2  0
  6 12  1  0
  6 29  1  0
  7 14  2  0
  7 30  1  0
  8 15  1  0
  8 31  1  0
  9 15  2  0
  9 16  1  0
  9 32  1  0
 10 19  2  0
 10 33  1  0
 11 14  1  0
 11 36  1  0
 12 16  2  0
 12 20  1  0
 13 17  2  0
 13 21  1  0
 14 23  1  0
 15 37  1  0
 16 38  1  0
 17 19  1  0
 17 23  1  0
 18 20  1  0
 18 21  1  0
 18 22  2  0
 20 34  1  0
 21 35  1  0
 36 39  1  0
 36 40  1  0
 36 41  1  0
M  END
>  <Id>  (4) 
11f

>  <IUPAC>  (4) 
1-(2,4-Difluorophenyl)-3-(2-(2-(trifluoromethyl)phenoxy)pyridin-3-yl)urea

>  <Structure>  (4) 
FC(F)(F)c1c(Oc2c(NC(=O)Nc3c(F)cc(F)cc3)cccn2)cccc1

>  <R1>  (4) 
2, 4-di-F-Ph

>  <R2>  (4) 
2-CF3

>  <X>  (4) 
O

>  <hP2Y1Ki_nM>  (4) 
172

>  <SEM_hP2Y1Ki_nM>  (4) 
71.0

$$$$
16
     RDKit          3D

 54 56  0  0  0  0  0  0  0  0999 V2000
   13.8350    3.9800    9.1610 C   0  0  0  0  0  0  0  0  0  0  0  0
   13.9480    2.7980    9.8870 C   0  0  0  0  0  0  0  0  0  0  0  0
   19.2130   -0.8270   10.8090 C   0  0  0  0  0  0  0  0  0  0  0  0
   14.6920    4.2110    8.0830 C   0  0  0  0  0  0  0  0  0  0  0  0
   18.9740   -1.3450    9.5300 C   0  0  0  0  0  0  0  0  0  0  0  0
   20.2100   -3.4120    4.5740 C   0  0  0  0  0  0  0  0  0  0  0  0
   18.6320   -2.5130    2.9870 C   0  0  0  0  0  0  0  0  0  0  0  0
   14.8950    1.8450    9.5120 C   0  0  0  0  0  0  0  0  0  0  0  0
   20.9090   -4.0370    3.5340 C   0  0  0  0  0  0  0  0  0  0  0  0
   19.3200   -3.1410    1.9380 C   0  0  0  0  0  0  0  0  0  0  0  0
   18.6160    0.3800   11.1810 C   0  0  0  0  0  0  0  0  0  0  0  0
   15.6790    3.2890    7.6790 C   0  0  0  0  0  0  0  0  0  0  0  0
   19.0610   -2.6340    4.3200 C   0  0  0  0  0  0  0  0  0  0  0  0
   18.1440   -0.6620    8.6170 C   0  0  0  0  0  0  0  0  0  0  0  0
   20.4510   -3.9250    2.2110 C   0  0  0  0  0  0  0  0  0  0  0  0
   15.7890    2.0930    8.4540 C   0  0  0  0  0  0  0  0  0  0  0  0
   17.5480    0.5430    9.0210 C   0  0  0  0  0  0  0  0  0  0  0  0
   18.7480   -1.7520    6.5550 C   0  0  0  0  0  0  0  0  0  0  0  0
   17.7940    1.0570   10.2520 N   0  0  0  0  0  0  0  0  0  0  0  0
   18.3500   -1.9640    5.2670 N   0  0  0  0  0  0  0  0  0  0  0  0
   17.8710   -1.0600    7.3410 N   0  0  0  0  0  0  0  0  0  0  0  0
   19.7850   -2.2390    7.0160 O   0  0  0  0  0  0  0  0  0  0  0  0
   16.7350    1.1560    8.0870 O   0  0  0  0  0  0  0  0  0  0  0  0
   13.0894    4.7137    9.4296 H   0  0  0  0  0  0  0  0  0  0  0  0
   13.3056    2.6195   10.7366 H   0  0  0  0  0  0  0  0  0  0  0  0
   19.8524   -1.3553   11.5007 H   0  0  0  0  0  0  0  0  0  0  0  0
   14.5944    5.1364    7.5348 H   0  0  0  0  0  0  0  0  0  0  0  0
   19.4311   -2.2793    9.2392 H   0  0  0  0  0  0  0  0  0  0  0  0
   20.5572   -3.5278    5.5901 H   0  0  0  0  0  0  0  0  0  0  0  0
   17.7542   -1.9241    2.7656 H   0  0  0  0  0  0  0  0  0  0  0  0
   14.9427    0.9044   10.0406 H   0  0  0  0  0  0  0  0  0  0  0  0
   21.8014   -4.6059    3.7495 H   0  0  0  0  0  0  0  0  0  0  0  0
   18.9790   -3.0209    0.9203 H   0  0  0  0  0  0  0  0  0  0  0  0
   18.7806    0.7906   12.1663 H   0  0  0  0  0  0  0  0  0  0  0  0
   17.4517   -1.5921    4.9936 H   0  0  0  0  0  0  0  0  0  0  0  0
   16.9668   -0.8293    6.9546 H   0  0  0  0  0  0  0  0  0  0  0  0
   16.6989    2.7674    5.3960 C   0  0  0  0  0  0  0  0  0  0  0  0
   18.1901    3.8093    7.1419 C   0  0  0  0  0  0  0  0  0  0  0  0
   16.5226    5.1613    5.9612 C   0  0  0  0  0  0  0  0  0  0  0  0
   16.7407    3.7422    6.5841 C   0  0  0  0  0  0  0  0  0  0  0  0
   22.0689   -5.4090    1.1310 C   0  0  0  0  0  0  0  0  0  0  0  0
   20.9988   -4.4766    1.0780 O   0  0  0  0  0  0  0  0  0  0  0  0
   21.7172   -6.5231    1.8043 F   0  0  0  0  0  0  0  0  0  0  0  0
   22.3801   -5.7753   -0.1381 F   0  0  0  0  0  0  0  0  0  0  0  0
   23.1725   -4.8671    1.6830 F   0  0  0  0  0  0  0  0  0  0  0  0
   15.6806    2.6958    5.0005 H   0  0  0  0  0  0  0  0  0  0  0  0
   17.3491    3.1028    4.5770 H   0  0  0  0  0  0  0  0  0  0  0  0
   17.0329    1.7662    5.6744 H   0  0  0  0  0  0  0  0  0  0  0  0
   18.2623    4.5136    7.9795 H   0  0  0  0  0  0  0  0  0  0  0  0
   18.5616    2.8410    7.4797 H   0  0  0  0  0  0  0  0  0  0  0  0
   18.8978    4.1589    6.3734 H   0  0  0  0  0  0  0  0  0  0  0  0
   16.6312    5.9595    6.7054 H   0  0  0  0  0  0  0  0  0  0  0  0
   17.2703    5.3725    5.1794 H   0  0  0  0  0  0  0  0  0  0  0  0
   15.5424    5.2537    5.4846 H   0  0  0  0  0  0  0  0  0  0  0  0
  1  2  2  0
  1  4  1  0
  1 24  1  0
  2  8  1  0
  2 25  1  0
  3  5  2  0
  3 11  1  0
  3 26  1  0
  4 12  2  0
  4 27  1  0
  5 14  1  0
  5 28  1  0
  6  9  2  0
  6 13  1  0
  6 29  1  0
  7 10  1  0
  7 13  2  0
  7 30  1  0
  8 16  2  0
  8 31  1  0
  9 15  1  0
  9 32  1  0
 10 15  2  0
 10 33  1  0
 11 19  2  0
 11 34  1  0
 12 16  1  0
 12 40  1  0
 13 20  1  0
 14 17  2  0
 14 21  1  0
 15 42  1  0
 16 23  1  0
 17 19  1  0
 17 23  1  0
 18 20  1  0
 18 21  1  0
 18 22  2  0
 20 35  1  0
 21 36  1  0
 37 40  1  0
 37 46  1  0
 37 47  1  0
 37 48  1  0
 38 40  1  0
 38 49  1  0
 38 50  1  0
 38 51  1  0
 39 40  1  0
 39 52  1  0
 39 53  1  0
 39 54  1  0
 41 42  1  0
 41 43  1  0
 41 44  1  0
 41 45  1  0
M  END
>  <Id>  (5) 
16

>  <IUPAC>  (5) 
1-(2-(2-tert-Butylphenoxy)pyridin-3-yl)-3-(4-(trifluoromethoxy)phenyl)urea

>  <Structure>  (5) 
FC(F)(F)Oc1ccc(NC(=O)Nc2c(Oc3c(C(C)(C)C)cccc3)nccc2)cc1

>  <R1>  (5) 
4-OCF3-Ph

>  <R2>  (5) 
2-t-Bu

>  <X>  (5) 
O

>  <hP2Y1Ki_nM>  (5) 
6

>  <SEM_hP2Y1Ki_nM>  (5) 
0.6

$$$$
17
     RDKit          3D

 62 64  0  0  0  0  0  0  0  0999 V2000
   13.8350    3.9800    9.1610 C   0  0  0  0  0  0  0  0  0  0  0  0
   13.9480    2.7980    9.8870 C   0  0  0  0  0  0  0  0  0  0  0  0
   19.2130   -0.8270   10.8090 C   0  0  0  0  0  0  0  0  0  0  0  0
   14.6920    4.2110    8.0830 C   0  0  0  0  0  0  0  0  0  0  0  0
   20.9090   -4.0370    3.5340 C   0  0  0  0  0  0  0  0  0  0  0  0
   19.3200   -3.1410    1.9380 C   0  0  0  0  0  0  0  0  0  0  0  0
   18.9740   -1.3450    9.5300 C   0  0  0  0  0  0  0  0  0  0  0  0
   20.2100   -3.4120    4.5740 C   0  0  0  0  0  0  0  0  0  0  0  0
   18.6320   -2.5130    2.9870 C   0  0  0  0  0  0  0  0  0  0  0  0
   14.8950    1.8450    9.5120 C   0  0  0  0  0  0  0  0  0  0  0  0
   18.6160    0.3800   11.1810 C   0  0  0  0  0  0  0  0  0  0  0  0
   20.4510   -3.9250    2.2110 C   0  0  0  0  0  0  0  0  0  0  0  0
   15.6790    3.2890    7.6790 C   0  0  0  0  0  0  0  0  0  0  0  0
   19.0610   -2.6340    4.3200 C   0  0  0  0  0  0  0  0  0  0  0  0
   18.1440   -0.6620    8.6170 C   0  0  0  0  0  0  0  0  0  0  0  0
   15.7890    2.0930    8.4540 C   0  0  0  0  0  0  0  0  0  0  0  0
   17.5480    0.5430    9.0210 C   0  0  0  0  0  0  0  0  0  0  0  0
   18.7480   -1.7520    6.5550 C   0  0  0  0  0  0  0  0  0  0  0  0
   17.7940    1.0570   10.2520 N   0  0  0  0  0  0  0  0  0  0  0  0
   18.3500   -1.9640    5.2670 N   0  0  0  0  0  0  0  0  0  0  0  0
   17.8710   -1.0600    7.3410 N   0  0  0  0  0  0  0  0  0  0  0  0
   19.7850   -2.2390    7.0160 O   0  0  0  0  0  0  0  0  0  0  0  0
   16.7350    1.1560    8.0870 O   0  0  0  0  0  0  0  0  0  0  0  0
   13.0894    4.7137    9.4296 H   0  0  0  0  0  0  0  0  0  0  0  0
   13.3056    2.6195   10.7366 H   0  0  0  0  0  0  0  0  0  0  0  0
   19.8524   -1.3553   11.5007 H   0  0  0  0  0  0  0  0  0  0  0  0
   14.5944    5.1364    7.5348 H   0  0  0  0  0  0  0  0  0  0  0  0
   21.8014   -4.6059    3.7495 H   0  0  0  0  0  0  0  0  0  0  0  0
   18.9790   -3.0209    0.9203 H   0  0  0  0  0  0  0  0  0  0  0  0
   19.4311   -2.2793    9.2392 H   0  0  0  0  0  0  0  0  0  0  0  0
   20.5572   -3.5278    5.5901 H   0  0  0  0  0  0  0  0  0  0  0  0
   17.7542   -1.9241    2.7656 H   0  0  0  0  0  0  0  0  0  0  0  0
   14.9427    0.9044   10.0406 H   0  0  0  0  0  0  0  0  0  0  0  0
   18.7806    0.7906   12.1663 H   0  0  0  0  0  0  0  0  0  0  0  0
   17.4517   -1.5921    4.9936 H   0  0  0  0  0  0  0  0  0  0  0  0
   16.9668   -0.8293    6.9546 H   0  0  0  0  0  0  0  0  0  0  0  0
   20.1250   -5.3870    0.1370 C   0  0  0  0  0  0  0  0  0  0  0  0
   22.2668   -5.5759    1.3676 C   0  0  0  0  0  0  0  0  0  0  0  0
   21.7821   -3.5060    0.0816 C   0  0  0  0  0  0  0  0  0  0  0  0
   16.6989    2.7674    5.3960 C   0  0  0  0  0  0  0  0  0  0  0  0
   18.1901    3.8093    7.1419 C   0  0  0  0  0  0  0  0  0  0  0  0
   16.5226    5.1613    5.9612 C   0  0  0  0  0  0  0  0  0  0  0  0
   21.1484   -4.5893    0.9870 C   0  0  0  0  0  0  0  0  0  0  0  0
   16.7407    3.7422    6.5841 C   0  0  0  0  0  0  0  0  0  0  0  0
   19.3566   -4.7453   -0.3076 H   0  0  0  0  0  0  0  0  0  0  0  0
   20.6159   -5.9021   -0.6983 H   0  0  0  0  0  0  0  0  0  0  0  0
   19.6155   -6.1427    0.7448 H   0  0  0  0  0  0  0  0  0  0  0  0
   23.0715   -5.0765    1.9163 H   0  0  0  0  0  0  0  0  0  0  0  0
   21.8785   -6.3951    1.9813 H   0  0  0  0  0  0  0  0  0  0  0  0
   22.7186   -6.0231    0.4724 H   0  0  0  0  0  0  0  0  0  0  0  0
   22.5066   -2.9019    0.6385 H   0  0  0  0  0  0  0  0  0  0  0  0
   22.3093   -3.9585   -0.7685 H   0  0  0  0  0  0  0  0  0  0  0  0
   21.0321   -2.8251   -0.3364 H   0  0  0  0  0  0  0  0  0  0  0  0
   15.6806    2.6958    5.0005 H   0  0  0  0  0  0  0  0  0  0  0  0
   17.3491    3.1028    4.5770 H   0  0  0  0  0  0  0  0  0  0  0  0
   17.0329    1.7662    5.6744 H   0  0  0  0  0  0  0  0  0  0  0  0
   18.2623    4.5136    7.9795 H   0  0  0  0  0  0  0  0  0  0  0  0
   18.5616    2.8410    7.4797 H   0  0  0  0  0  0  0  0  0  0  0  0
   18.8978    4.1589    6.3734 H   0  0  0  0  0  0  0  0  0  0  0  0
   16.6312    5.9595    6.7054 H   0  0  0  0  0  0  0  0  0  0  0  0
   17.2703    5.3725    5.1794 H   0  0  0  0  0  0  0  0  0  0  0  0
   15.5424    5.2537    5.4846 H   0  0  0  0  0  0  0  0  0  0  0  0
  1  2  2  0
  1  4  1  0
  1 24  1  0
  2 10  1  0
  2 25  1  0
  3  7  2  0
  3 11  1  0
  3 26  1  0
  4 13  2  0
  4 27  1  0
  5  8  2  0
  5 12  1  0
  5 28  1  0
  6  9  1  0
  6 12  2  0
  6 29  1  0
  7 15  1  0
  7 30  1  0
  8 14  1  0
  8 31  1  0
  9 14  2  0
  9 32  1  0
 10 16  2  0
 10 33  1  0
 11 19  2  0
 11 34  1  0
 12 43  1  0
 13 16  1  0
 13 44  1  0
 14 20  1  0
 15 17  2  0
 15 21  1  0
 16 23  1  0
 17 19  1  0
 17 23  1  0
 18 20  1  0
 18 21  1  0
 18 22  2  0
 20 35  1  0
 21 36  1  0
 37 43  1  0
 37 45  1  0
 37 46  1  0
 37 47  1  0
 38 43  1  0
 38 48  1  0
 38 49  1  0
 38 50  1  0
 39 43  1  0
 39 51  1  0
 39 52  1  0
 39 53  1  0
 40 44  1  0
 40 54  1  0
 40 55  1  0
 40 56  1  0
 41 44  1  0
 41 57  1  0
 41 58  1  0
 41 59  1  0
 42 44  1  0
 42 60  1  0
 42 61  1  0
 42 62  1  0
M  END
>  <Id>  (6) 
17

>  <IUPAC>  (6) 
1-(2-(2-tert-Butylphenoxy)pyridin-3-yl)-3-(4-tert-butylphenyl)urea

>  <Structure>  (6) 
O=C(Nc1c(Oc2c(C(C)(C)C)cccc2)nccc1)Nc1ccc(C(C)(C)C)cc1

>  <R1>  (6) 
4-t-Bu-Ph

>  <R2>  (6) 
2-t-Bu

>  <X>  (6) 
O

>  <hP2Y1Ki_nM>  (6) 
8

>  <SEM_hP2Y1Ki_nM>  (6) 
0.4

$$$$
19
     RDKit          3D

 51 53  0  0  0  0  0  0  0  0999 V2000
   13.8350    3.9800    9.1610 C   0  0  0  0  0  0  0  0  0  0  0  0
   13.9480    2.7980    9.8870 C   0  0  0  0  0  0  0  0  0  0  0  0
   19.2130   -0.8270   10.8090 C   0  0  0  0  0  0  0  0  0  0  0  0
   14.6920    4.2110    8.0830 C   0  0  0  0  0  0  0  0  0  0  0  0
   18.9740   -1.3450    9.5300 C   0  0  0  0  0  0  0  0  0  0  0  0
   18.6320   -2.5130    2.9870 C   0  0  0  0  0  0  0  0  0  0  0  0
   20.2100   -3.4120    4.5740 C   0  0  0  0  0  0  0  0  0  0  0  0
   14.8950    1.8450    9.5120 C   0  0  0  0  0  0  0  0  0  0  0  0
   19.3200   -3.1410    1.9380 C   0  0  0  0  0  0  0  0  0  0  0  0
   20.9090   -4.0370    3.5340 C   0  0  0  0  0  0  0  0  0  0  0  0
   18.6160    0.3800   11.1810 C   0  0  0  0  0  0  0  0  0  0  0  0
   15.6790    3.2890    7.6790 C   0  0  0  0  0  0  0  0  0  0  0  0
   19.0610   -2.6340    4.3200 C   0  0  0  0  0  0  0  0  0  0  0  0
   18.1440   -0.6620    8.6170 C   0  0  0  0  0  0  0  0  0  0  0  0
   20.4510   -3.9250    2.2110 C   0  0  0  0  0  0  0  0  0  0  0  0
   15.7890    2.0930    8.4540 C   0  0  0  0  0  0  0  0  0  0  0  0
   17.5480    0.5430    9.0210 C   0  0  0  0  0  0  0  0  0  0  0  0
   18.7480   -1.7520    6.5550 C   0  0  0  0  0  0  0  0  0  0  0  0
   17.7940    1.0570   10.2520 N   0  0  0  0  0  0  0  0  0  0  0  0
   18.3500   -1.9640    5.2670 N   0  0  0  0  0  0  0  0  0  0  0  0
   17.8710   -1.0600    7.3410 N   0  0  0  0  0  0  0  0  0  0  0  0
   19.7850   -2.2390    7.0160 O   0  0  0  0  0  0  0  0  0  0  0  0
   16.7350    1.1560    8.0870 O   0  0  0  0  0  0  0  0  0  0  0  0
   13.0894    4.7137    9.4296 H   0  0  0  0  0  0  0  0  0  0  0  0
   13.3056    2.6195   10.7366 H   0  0  0  0  0  0  0  0  0  0  0  0
   19.8524   -1.3553   11.5007 H   0  0  0  0  0  0  0  0  0  0  0  0
   14.5944    5.1364    7.5348 H   0  0  0  0  0  0  0  0  0  0  0  0
   19.4311   -2.2793    9.2392 H   0  0  0  0  0  0  0  0  0  0  0  0
   17.7542   -1.9241    2.7656 H   0  0  0  0  0  0  0  0  0  0  0  0
   20.5572   -3.5278    5.5901 H   0  0  0  0  0  0  0  0  0  0  0  0
   14.9427    0.9044   10.0406 H   0  0  0  0  0  0  0  0  0  0  0  0
   18.9790   -3.0209    0.9203 H   0  0  0  0  0  0  0  0  0  0  0  0
   21.8014   -4.6059    3.7495 H   0  0  0  0  0  0  0  0  0  0  0  0
   18.7806    0.7906   12.1663 H   0  0  0  0  0  0  0  0  0  0  0  0
   17.4517   -1.5921    4.9936 H   0  0  0  0  0  0  0  0  0  0  0  0
   16.9668   -0.8293    6.9546 H   0  0  0  0  0  0  0  0  0  0  0  0
   17.4828    4.9268    6.8823 C   0  0  0  0  0  0  0  0  0  0  0  0
   15.9118    3.8929    5.2252 C   0  0  0  0  0  0  0  0  0  0  0  0
   16.6495    3.6716    6.5521 C   0  0  0  0  0  0  0  0  0  0  0  0
   22.0674   -5.4044    1.1250 C   0  0  0  0  0  0  0  0  0  0  0  0
   20.9803   -4.4932    1.0784 O   0  0  0  0  0  0  0  0  0  0  0  0
   21.7546   -6.5105    1.8295 F   0  0  0  0  0  0  0  0  0  0  0  0
   22.3547   -5.7909   -0.1436 F   0  0  0  0  0  0  0  0  0  0  0  0
   23.1719   -4.8282    1.6387 F   0  0  0  0  0  0  0  0  0  0  0  0
   18.0236    4.8060    7.8264 H   0  0  0  0  0  0  0  0  0  0  0  0
   18.2251    5.1226    6.0971 H   0  0  0  0  0  0  0  0  0  0  0  0
   16.8610    5.8262    6.9644 H   0  0  0  0  0  0  0  0  0  0  0  0
   15.2967    3.0237    4.9744 H   0  0  0  0  0  0  0  0  0  0  0  0
   15.2573    4.7714    5.2631 H   0  0  0  0  0  0  0  0  0  0  0  0
   16.6219    4.0532    4.4051 H   0  0  0  0  0  0  0  0  0  0  0  0
   17.3646    2.8564    6.3904 H   0  0  0  0  0  0  0  0  0  0  0  0
  1  2  2  0
  1  4  1  0
  1 24  1  0
  2  8  1  0
  2 25  1  0
  3  5  2  0
  3 11  1  0
  3 26  1  0
  4 12  2  0
  4 27  1  0
  5 14  1  0
  5 28  1  0
  6  9  2  0
  6 13  1  0
  6 29  1  0
  7 10  1  0
  7 13  2  0
  7 30  1  0
  8 16  2  0
  8 31  1  0
  9 15  1  0
  9 32  1  0
 10 15  2  0
 10 33  1  0
 11 19  2  0
 11 34  1  0
 12 16  1  0
 12 39  1  0
 13 20  1  0
 14 17  2  0
 14 21  1  0
 15 41  1  0
 16 23  1  0
 17 19  1  0
 17 23  1  0
 18 20  1  0
 18 21  1  0
 18 22  2  0
 20 35  1  0
 21 36  1  0
 37 39  1  0
 37 45  1  0
 37 46  1  0
 37 47  1  0
 38 39  1  0
 38 48  1  0
 38 49  1  0
 38 50  1  0
 39 51  1  0
 40 41  1  0
 40 42  1  0
 40 43  1  0
 40 44  1  0
M  END
>  <Id>  (7) 
19

>  <IUPAC>  (7) 
1-(2-(2-Isopropylphenoxy)pyridin-3-yl)-3-(4-(trifluoromethoxy)phenyl)urea

>  <Structure>  (7) 
FC(F)(F)Oc1ccc(NC(=O)Nc2c(Oc3c(C(C)C)cccc3)nccc2)cc1

>  <R1>  (7) 
4-OCF3-Ph

>  <R2>  (7) 
2-i-Pr

>  <X>  (7) 
O

>  <hP2Y1Ki_nM>  (7) 
16

>  <SEM_hP2Y1Ki_nM>  (7) 
2.0

$$$$
6o
     RDKit          3D

 47 49  0  0  0  0  0  0  0  0999 V2000
   13.9480    2.7980    9.8870 C   0  0  0  0  0  0  0  0  0  0  0  0
   19.2130   -0.8270   10.8090 C   0  0  0  0  0  0  0  0  0  0  0  0
   19.3200   -3.1410    1.9380 C   0  0  0  0  0  0  0  0  0  0  0  0
   20.9090   -4.0370    3.5340 C   0  0  0  0  0  0  0  0  0  0  0  0
   13.8350    3.9800    9.1610 C   0  0  0  0  0  0  0  0  0  0  0  0
   18.9740   -1.3450    9.5300 C   0  0  0  0  0  0  0  0  0  0  0  0
   18.6320   -2.5130    2.9870 C   0  0  0  0  0  0  0  0  0  0  0  0
   20.2100   -3.4120    4.5740 C   0  0  0  0  0  0  0  0  0  0  0  0
   14.8950    1.8450    9.5120 C   0  0  0  0  0  0  0  0  0  0  0  0
   15.6790    3.2890    7.6790 C   0  0  0  0  0  0  0  0  0  0  0  0
   18.6160    0.3800   11.1810 C   0  0  0  0  0  0  0  0  0  0  0  0
   20.4510   -3.9250    2.2110 C   0  0  0  0  0  0  0  0  0  0  0  0
   14.6920    4.2110    8.0830 C   0  0  0  0  0  0  0  0  0  0  0  0
   19.0610   -2.6340    4.3200 C   0  0  0  0  0  0  0  0  0  0  0  0
   18.1440   -0.6620    8.6170 C   0  0  0  0  0  0  0  0  0  0  0  0
   15.7890    2.0930    8.4540 C   0  0  0  0  0  0  0  0  0  0  0  0
   17.5480    0.5430    9.0210 C   0  0  0  0  0  0  0  0  0  0  0  0
   18.7480   -1.7520    6.5550 C   0  0  0  0  0  0  0  0  0  0  0  0
   17.7940    1.0570   10.2520 N   0  0  0  0  0  0  0  0  0  0  0  0
   18.3500   -1.9640    5.2670 N   0  0  0  0  0  0  0  0  0  0  0  0
   17.8710   -1.0600    7.3410 N   0  0  0  0  0  0  0  0  0  0  0  0
   19.7850   -2.2390    7.0160 O   0  0  0  0  0  0  0  0  0  0  0  0
   16.7350    1.1560    8.0870 O   0  0  0  0  0  0  0  0  0  0  0  0
   13.3056    2.6195   10.7366 H   0  0  0  0  0  0  0  0  0  0  0  0
   19.8524   -1.3553   11.5007 H   0  0  0  0  0  0  0  0  0  0  0  0
   18.9790   -3.0209    0.9203 H   0  0  0  0  0  0  0  0  0  0  0  0
   21.8014   -4.6059    3.7495 H   0  0  0  0  0  0  0  0  0  0  0  0
   13.0894    4.7137    9.4296 H   0  0  0  0  0  0  0  0  0  0  0  0
   19.4311   -2.2793    9.2392 H   0  0  0  0  0  0  0  0  0  0  0  0
   17.7542   -1.9241    2.7656 H   0  0  0  0  0  0  0  0  0  0  0  0
   20.5572   -3.5278    5.5901 H   0  0  0  0  0  0  0  0  0  0  0  0
   14.9427    0.9044   10.0406 H   0  0  0  0  0  0  0  0  0  0  0  0
   16.3182    3.4764    6.8289 H   0  0  0  0  0  0  0  0  0  0  0  0
   18.7806    0.7906   12.1663 H   0  0  0  0  0  0  0  0  0  0  0  0
   17.4517   -1.5921    4.9936 H   0  0  0  0  0  0  0  0  0  0  0  0
   16.9668   -0.8293    6.9546 H   0  0  0  0  0  0  0  0  0  0  0  0
   21.1224   -4.6033    1.0774 C   0  0  0  0  0  0  0  0  0  0  0  0
   22.7423   -6.1962    0.4645 C   0  0  0  0  0  0  0  0  0  0  0  0
   14.7252    5.5284    7.2850 C   0  0  0  0  0  0  0  0  0  0  0  0
   20.8343   -4.3719   -0.0872 O   0  0  0  0  0  0  0  0  0  0  0  0
   22.0529   -5.4967    1.5094 O   0  0  0  0  0  0  0  0  0  0  0  0
   13.9962    6.5378    7.8333 F   0  0  0  0  0  0  0  0  0  0  0  0
   15.9895    6.0419    7.1412 F   0  0  0  0  0  0  0  0  0  0  0  0
   14.2635    5.3822    6.0085 F   0  0  0  0  0  0  0  0  0  0  0  0
   23.4653   -6.8825    0.9143 H   0  0  0  0  0  0  0  0  0  0  0  0
   23.2819   -5.4857   -0.1693 H   0  0  0  0  0  0  0  0  0  0  0  0
   22.0322   -6.7778   -0.1318 H   0  0  0  0  0  0  0  0  0  0  0  0
  1  5  2  0
  1  9  1  0
  1 24  1  0
  2  6  2  0
  2 11  1  0
  2 25  1  0
  3  7  2  0
  3 12  1  0
  3 26  1  0
  4  8  1  0
  4 12  2  0
  4 27  1  0
  5 13  1  0
  5 28  1  0
  6 15  1  0
  6 29  1  0
  7 14  1  0
  7 30  1  0
  8 14  2  0
  8 31  1  0
  9 16  2  0
  9 32  1  0
 10 13  2  0
 10 16  1  0
 10 33  1  0
 11 19  2  0
 11 34  1  0
 12 37  1  0
 13 39  1  0
 14 20  1  0
 15 17  2  0
 15 21  1  0
 16 23  1  0
 17 19  1  0
 17 23  1  0
 18 20  1  0
 18 21  1  0
 18 22  2  0
 20 35  1  0
 21 36  1  0
 37 40  2  0
 37 41  1  0
 38 41  1  0
 38 45  1  0
 38 46  1  0
 38 47  1  0
 39 42  1  0
 39 43  1  0
 39 44  1  0
M  END
>  <Id>  (8) 
6o

>  <IUPAC>  (8) 
Methyl 4-(3-(2-(3-(Trifluoromethyl)phenoxy)pyridin-3-yl)ureido)benzoate

>  <Structure>  (8) 
FC(F)(F)c1cc(Oc2c(NC(=O)Nc3ccc(C(=O)OC)cc3)cccn2)ccc1

>  <R1>  (8) 
4-CO2Me-Ph

>  <R2>  (8) 
3-CF3

>  <X>  (8) 
O

>  <hP2Y1Ki_nM>  (8) 
644

>  <SEM_hP2Y1Ki_nM>  (8) 
296.0

$$$$
12
     RDKit          3D

 53 55  0  0  0  0  0  0  0  0999 V2000
   13.8350    3.9800    9.1610 C   0  0  0  0  0  0  0  0  0  0  0  0
   13.9480    2.7980    9.8870 C   0  0  0  0  0  0  0  0  0  0  0  0
   19.2130   -0.8270   10.8090 C   0  0  0  0  0  0  0  0  0  0  0  0
   14.6920    4.2110    8.0830 C   0  0  0  0  0  0  0  0  0  0  0  0
   20.9090   -4.0370    3.5340 C   0  0  0  0  0  0  0  0  0  0  0  0
   19.3200   -3.1410    1.9380 C   0  0  0  0  0  0  0  0  0  0  0  0
   18.9740   -1.3450    9.5300 C   0  0  0  0  0  0  0  0  0  0  0  0
   20.2100   -3.4120    4.5740 C   0  0  0  0  0  0  0  0  0  0  0  0
   18.6320   -2.5130    2.9870 C   0  0  0  0  0  0  0  0  0  0  0  0
   14.8950    1.8450    9.5120 C   0  0  0  0  0  0  0  0  0  0  0  0
   18.6160    0.3800   11.1810 C   0  0  0  0  0  0  0  0  0  0  0  0
   20.4510   -3.9250    2.2110 C   0  0  0  0  0  0  0  0  0  0  0  0
   15.6790    3.2890    7.6790 C   0  0  0  0  0  0  0  0  0  0  0  0
   19.0610   -2.6340    4.3200 C   0  0  0  0  0  0  0  0  0  0  0  0
   18.1440   -0.6620    8.6170 C   0  0  0  0  0  0  0  0  0  0  0  0
   15.7890    2.0930    8.4540 C   0  0  0  0  0  0  0  0  0  0  0  0
   17.5480    0.5430    9.0210 C   0  0  0  0  0  0  0  0  0  0  0  0
   18.7480   -1.7520    6.5550 C   0  0  0  0  0  0  0  0  0  0  0  0
   17.7940    1.0570   10.2520 N   0  0  0  0  0  0  0  0  0  0  0  0
   18.3500   -1.9640    5.2670 N   0  0  0  0  0  0  0  0  0  0  0  0
   17.8710   -1.0600    7.3410 N   0  0  0  0  0  0  0  0  0  0  0  0
   19.7850   -2.2390    7.0160 O   0  0  0  0  0  0  0  0  0  0  0  0
   16.7350    1.1560    8.0870 O   0  0  0  0  0  0  0  0  0  0  0  0
   13.0894    4.7137    9.4296 H   0  0  0  0  0  0  0  0  0  0  0  0
   13.3056    2.6195   10.7366 H   0  0  0  0  0  0  0  0  0  0  0  0
   19.8524   -1.3553   11.5007 H   0  0  0  0  0  0  0  0  0  0  0  0
   14.5944    5.1364    7.5348 H   0  0  0  0  0  0  0  0  0  0  0  0
   21.8014   -4.6059    3.7495 H   0  0  0  0  0  0  0  0  0  0  0  0
   18.9790   -3.0209    0.9203 H   0  0  0  0  0  0  0  0  0  0  0  0
   19.4311   -2.2793    9.2392 H   0  0  0  0  0  0  0  0  0  0  0  0
   20.5572   -3.5278    5.5901 H   0  0  0  0  0  0  0  0  0  0  0  0
   17.7542   -1.9241    2.7656 H   0  0  0  0  0  0  0  0  0  0  0  0
   14.9427    0.9044   10.0406 H   0  0  0  0  0  0  0  0  0  0  0  0
   18.7806    0.7906   12.1663 H   0  0  0  0  0  0  0  0  0  0  0  0
   17.4517   -1.5921    4.9936 H   0  0  0  0  0  0  0  0  0  0  0  0
   16.9668   -0.8293    6.9546 H   0  0  0  0  0  0  0  0  0  0  0  0
   21.1475   -4.6163    1.0698 C   0  0  0  0  0  0  0  0  0  0  0  0
   16.6989    2.7674    5.3960 C   0  0  0  0  0  0  0  0  0  0  0  0
   18.1901    3.8093    7.1419 C   0  0  0  0  0  0  0  0  0  0  0  0
   16.5226    5.1613    5.9612 C   0  0  0  0  0  0  0  0  0  0  0  0
   16.7407    3.7422    6.5841 C   0  0  0  0  0  0  0  0  0  0  0  0
   21.4781   -5.6181    1.3621 H   0  0  0  0  0  0  0  0  0  0  0  0
   20.4729   -4.7426    0.2122 H   0  0  0  0  0  0  0  0  0  0  0  0
   22.0100   -4.0295    0.7409 H   0  0  0  0  0  0  0  0  0  0  0  0
   15.6806    2.6958    5.0005 H   0  0  0  0  0  0  0  0  0  0  0  0
   17.3491    3.1028    4.5770 H   0  0  0  0  0  0  0  0  0  0  0  0
   17.0329    1.7662    5.6744 H   0  0  0  0  0  0  0  0  0  0  0  0
   18.2623    4.5136    7.9795 H   0  0  0  0  0  0  0  0  0  0  0  0
   18.5616    2.8410    7.4797 H   0  0  0  0  0  0  0  0  0  0  0  0
   18.8978    4.1589    6.3734 H   0  0  0  0  0  0  0  0  0  0  0  0
   16.6312    5.9595    6.7054 H   0  0  0  0  0  0  0  0  0  0  0  0
   17.2703    5.3725    5.1794 H   0  0  0  0  0  0  0  0  0  0  0  0
   15.5424    5.2537    5.4846 H   0  0  0  0  0  0  0  0  0  0  0  0
  1  2  2  0
  1  4  1  0
  1 24  1  0
  2 10  1  0
  2 25  1  0
  3  7  2  0
  3 11  1  0
  3 26  1  0
  4 13  2  0
  4 27  1  0
  5  8  2  0
  5 12  1  0
  5 28  1  0
  6  9  1  0
  6 12  2  0
  6 29  1  0
  7 15  1  0
  7 30  1  0
  8 14  1  0
  8 31  1  0
  9 14  2  0
  9 32  1  0
 10 16  2  0
 10 33  1  0
 11 19  2  0
 11 34  1  0
 12 37  1  0
 13 16  1  0
 13 41  1  0
 14 20  1  0
 15 17  2  0
 15 21  1  0
 16 23  1  0
 17 19  1  0
 17 23  1  0
 18 20  1  0
 18 21  1  0
 18 22  2  0
 20 35  1  0
 21 36  1  0
 37 42  1  0
 37 43  1  0
 37 44  1  0
 38 41  1  0
 38 45  1  0
 38 46  1  0
 38 47  1  0
 39 41  1  0
 39 48  1  0
 39 49  1  0
 39 50  1  0
 40 41  1  0
 40 51  1  0
 40 52  1  0
 40 53  1  0
M  END
>  <Id>  (9) 
12

>  <IUPAC>  (9) 
1-(2-(2-tert-Butylphenoxy)pyridin-3-yl)-3-p-tolylurea

>  <Structure>  (9) 
O=C(Nc1c(Oc2c(C(C)(C)C)cccc2)nccc1)Nc1ccc(C)cc1

>  <R1>  (9) 
4-MePh

>  <R2>  (9) 
2-t-Bu

>  <X>  (9) 
O

>  <hP2Y1Ki_nM>  (9) 
7

>  <SEM_hP2Y1Ki_nM>  (9) 
0.1

$$$$
6n
     RDKit          3D

 42 44  0  0  0  0  0  0  0  0999 V2000
   13.9480    2.7980    9.8870 C   0  0  0  0  0  0  0  0  0  0  0  0
   19.2130   -0.8270   10.8090 C   0  0  0  0  0  0  0  0  0  0  0  0
   19.3200   -3.1410    1.9380 C   0  0  0  0  0  0  0  0  0  0  0  0
   20.9090   -4.0370    3.5340 C   0  0  0  0  0  0  0  0  0  0  0  0
   13.8350    3.9800    9.1610 C   0  0  0  0  0  0  0  0  0  0  0  0
   18.9740   -1.3450    9.5300 C   0  0  0  0  0  0  0  0  0  0  0  0
   18.6320   -2.5130    2.9870 C   0  0  0  0  0  0  0  0  0  0  0  0
   20.2100   -3.4120    4.5740 C   0  0  0  0  0  0  0  0  0  0  0  0
   14.8950    1.8450    9.5120 C   0  0  0  0  0  0  0  0  0  0  0  0
   15.6790    3.2890    7.6790 C   0  0  0  0  0  0  0  0  0  0  0  0
   18.6160    0.3800   11.1810 C   0  0  0  0  0  0  0  0  0  0  0  0
   20.4510   -3.9250    2.2110 C   0  0  0  0  0  0  0  0  0  0  0  0
   14.6920    4.2110    8.0830 C   0  0  0  0  0  0  0  0  0  0  0  0
   19.0610   -2.6340    4.3200 C   0  0  0  0  0  0  0  0  0  0  0  0
   18.1440   -0.6620    8.6170 C   0  0  0  0  0  0  0  0  0  0  0  0
   15.7890    2.0930    8.4540 C   0  0  0  0  0  0  0  0  0  0  0  0
   17.5480    0.5430    9.0210 C   0  0  0  0  0  0  0  0  0  0  0  0
   18.7480   -1.7520    6.5550 C   0  0  0  0  0  0  0  0  0  0  0  0
   17.7940    1.0570   10.2520 N   0  0  0  0  0  0  0  0  0  0  0  0
   18.3500   -1.9640    5.2670 N   0  0  0  0  0  0  0  0  0  0  0  0
   17.8710   -1.0600    7.3410 N   0  0  0  0  0  0  0  0  0  0  0  0
   19.7850   -2.2390    7.0160 O   0  0  0  0  0  0  0  0  0  0  0  0
   16.7350    1.1560    8.0870 O   0  0  0  0  0  0  0  0  0  0  0  0
   13.3056    2.6195   10.7366 H   0  0  0  0  0  0  0  0  0  0  0  0
   19.8524   -1.3553   11.5007 H   0  0  0  0  0  0  0  0  0  0  0  0
   18.9790   -3.0209    0.9203 H   0  0  0  0  0  0  0  0  0  0  0  0
   21.8014   -4.6059    3.7495 H   0  0  0  0  0  0  0  0  0  0  0  0
   13.0894    4.7137    9.4296 H   0  0  0  0  0  0  0  0  0  0  0  0
   19.4311   -2.2793    9.2392 H   0  0  0  0  0  0  0  0  0  0  0  0
   17.7542   -1.9241    2.7656 H   0  0  0  0  0  0  0  0  0  0  0  0
   20.5572   -3.5278    5.5901 H   0  0  0  0  0  0  0  0  0  0  0  0
   14.9427    0.9044   10.0406 H   0  0  0  0  0  0  0  0  0  0  0  0
   16.3182    3.4764    6.8289 H   0  0  0  0  0  0  0  0  0  0  0  0
   18.7806    0.7906   12.1663 H   0  0  0  0  0  0  0  0  0  0  0  0
   17.4517   -1.5921    4.9936 H   0  0  0  0  0  0  0  0  0  0  0  0
   16.9668   -0.8293    6.9546 H   0  0  0  0  0  0  0  0  0  0  0  0
   21.1277   -4.6019    1.1446 C   0  0  0  0  0  0  0  0  0  0  0  0
   14.7252    5.5284    7.2850 C   0  0  0  0  0  0  0  0  0  0  0  0
   21.6674   -5.1513    0.2760 N   0  0  0  0  0  0  0  0  0  0  0  0
   13.9962    6.5378    7.8333 F   0  0  0  0  0  0  0  0  0  0  0  0
   15.9895    6.0419    7.1412 F   0  0  0  0  0  0  0  0  0  0  0  0
   14.2635    5.3822    6.0085 F   0  0  0  0  0  0  0  0  0  0  0  0
  1  5  2  0
  1  9  1  0
  1 24  1  0
  2  6  2  0
  2 11  1  0
  2 25  1  0
  3  7  2  0
  3 12  1  0
  3 26  1  0
  4  8  1  0
  4 12  2  0
  4 27  1  0
  5 13  1  0
  5 28  1  0
  6 15  1  0
  6 29  1  0
  7 14  1  0
  7 30  1  0
  8 14  2  0
  8 31  1  0
  9 16  2  0
  9 32  1  0
 10 13  2  0
 10 16  1  0
 10 33  1  0
 11 19  2  0
 11 34  1  0
 12 37  1  0
 13 38  1  0
 14 20  1  0
 15 17  2  0
 15 21  1  0
 16 23  1  0
 17 19  1  0
 17 23  1  0
 18 20  1  0
 18 21  1  0
 18 22  2  0
 20 35  1  0
 21 36  1  0
 37 39  3  0
 38 40  1  0
 38 41  1  0
 38 42  1  0
M  END
>  <Id>  (10) 
6n

>  <IUPAC>  (10) 
1-(4-Cyanophenyl)-3-(2-(3-(trifluoromethyl)phenoxy)pyridin-3-yl)urea

>  <Structure>  (10) 
FC(F)(F)c1cc(Oc2c(NC(=O)Nc3ccc(C#N)cc3)cccn2)ccc1

>  <R1>  (10) 
4-CN-Ph

>  <R2>  (10) 
3-CF3

>  <X>  (10) 
O

>  <hP2Y1Ki_nM>  (10) 
571

>  <SEM_hP2Y1Ki_nM>  (10) 
150.0

$$$$
11c
     RDKit          3D

 50 52  0  0  0  0  0  0  0  0999 V2000
   13.9480    2.7980    9.8870 C   0  0  0  0  0  0  0  0  0  0  0  0
   19.2130   -0.8270   10.8090 C   0  0  0  0  0  0  0  0  0  0  0  0
   13.8350    3.9800    9.1610 C   0  0  0  0  0  0  0  0  0  0  0  0
   18.9740   -1.3450    9.5300 C   0  0  0  0  0  0  0  0  0  0  0  0
   20.2100   -3.4120    4.5740 C   0  0  0  0  0  0  0  0  0  0  0  0
   14.8950    1.8450    9.5120 C   0  0  0  0  0  0  0  0  0  0  0  0
   20.9090   -4.0370    3.5340 C   0  0  0  0  0  0  0  0  0  0  0  0
   15.6790    3.2890    7.6790 C   0  0  0  0  0  0  0  0  0  0  0  0
   19.3200   -3.1410    1.9380 C   0  0  0  0  0  0  0  0  0  0  0  0
   18.6160    0.3800   11.1810 C   0  0  0  0  0  0  0  0  0  0  0  0
   14.6920    4.2110    8.0830 C   0  0  0  0  0  0  0  0  0  0  0  0
   19.0610   -2.6340    4.3200 C   0  0  0  0  0  0  0  0  0  0  0  0
   18.1440   -0.6620    8.6170 C   0  0  0  0  0  0  0  0  0  0  0  0
   15.7890    2.0930    8.4540 C   0  0  0  0  0  0  0  0  0  0  0  0
   20.4510   -3.9250    2.2110 C   0  0  0  0  0  0  0  0  0  0  0  0
   18.6320   -2.5130    2.9870 C   0  0  0  0  0  0  0  0  0  0  0  0
   17.5480    0.5430    9.0210 C   0  0  0  0  0  0  0  0  0  0  0  0
   18.7480   -1.7520    6.5550 C   0  0  0  0  0  0  0  0  0  0  0  0
   17.7940    1.0570   10.2520 N   0  0  0  0  0  0  0  0  0  0  0  0
   18.3500   -1.9640    5.2670 N   0  0  0  0  0  0  0  0  0  0  0  0
   17.8710   -1.0600    7.3410 N   0  0  0  0  0  0  0  0  0  0  0  0
   19.7850   -2.2390    7.0160 O   0  0  0  0  0  0  0  0  0  0  0  0
   16.7350    1.1560    8.0870 O   0  0  0  0  0  0  0  0  0  0  0  0
   13.3056    2.6195   10.7366 H   0  0  0  0  0  0  0  0  0  0  0  0
   19.8524   -1.3553   11.5007 H   0  0  0  0  0  0  0  0  0  0  0  0
   13.0894    4.7137    9.4296 H   0  0  0  0  0  0  0  0  0  0  0  0
   19.4311   -2.2793    9.2392 H   0  0  0  0  0  0  0  0  0  0  0  0
   20.5572   -3.5278    5.5901 H   0  0  0  0  0  0  0  0  0  0  0  0
   14.9427    0.9044   10.0406 H   0  0  0  0  0  0  0  0  0  0  0  0
   21.8014   -4.6059    3.7495 H   0  0  0  0  0  0  0  0  0  0  0  0
   16.3182    3.4764    6.8289 H   0  0  0  0  0  0  0  0  0  0  0  0
   18.9790   -3.0209    0.9203 H   0  0  0  0  0  0  0  0  0  0  0  0
   18.7806    0.7906   12.1663 H   0  0  0  0  0  0  0  0  0  0  0  0
   17.4517   -1.5921    4.9936 H   0  0  0  0  0  0  0  0  0  0  0  0
   16.9668   -0.8293    6.9546 H   0  0  0  0  0  0  0  0  0  0  0  0
   13.3915    6.4057    7.6449 C   0  0  0  0  0  0  0  0  0  0  0  0
   14.3057    5.1114    5.7388 C   0  0  0  0  0  0  0  0  0  0  0  0
   15.8579    6.2995    7.3304 C   0  0  0  0  0  0  0  0  0  0  0  0
   14.5538    5.4882    7.2182 C   0  0  0  0  0  0  0  0  0  0  0  0
   21.0942   -4.4949    1.1850 F   0  0  0  0  0  0  0  0  0  0  0  0
   17.6070   -1.6873    2.7126 F   0  0  0  0  0  0  0  0  0  0  0  0
   13.3428    7.2987    7.0123 H   0  0  0  0  0  0  0  0  0  0  0  0
   13.5110    6.7464    8.6791 H   0  0  0  0  0  0  0  0  0  0  0  0
   12.4268    5.8916    7.5586 H   0  0  0  0  0  0  0  0  0  0  0  0
   15.1385    4.5490    5.3032 H   0  0  0  0  0  0  0  0  0  0  0  0
   13.4043    4.4957    5.6359 H   0  0  0  0  0  0  0  0  0  0  0  0
   14.1721    6.0072    5.1216 H   0  0  0  0  0  0  0  0  0  0  0  0
   16.7194    5.7513    6.9333 H   0  0  0  0  0  0  0  0  0  0  0  0
   15.7875    7.2391    6.7729 H   0  0  0  0  0  0  0  0  0  0  0  0
   16.0751    6.5393    8.3776 H   0  0  0  0  0  0  0  0  0  0  0  0
  1  3  2  0
  1  6  1  0
  1 24  1  0
  2  4  2  0
  2 10  1  0
  2 25  1  0
  3 11  1  0
  3 26  1  0
  4 13  1  0
  4 27  1  0
  5  7  2  0
  5 12  1  0
  5 28  1  0
  6 14  2  0
  6 29  1  0
  7 15  1  0
  7 30  1  0
  8 11  2  0
  8 14  1  0
  8 31  1  0
  9 15  2  0
  9 16  1  0
  9 32  1  0
 10 19  2  0
 10 33  1  0
 11 39  1  0
 12 16  2  0
 12 20  1  0
 13 17  2  0
 13 21  1  0
 14 23  1  0
 15 40  1  0
 16 41  1  0
 17 19  1  0
 17 23  1  0
 18 20  1  0
 18 21  1  0
 18 22  2  0
 20 34  1  0
 21 35  1  0
 36 39  1  0
 36 42  1  0
 36 43  1  0
 36 44  1  0
 37 39  1  0
 37 45  1  0
 37 46  1  0
 37 47  1  0
 38 39  1  0
 38 48  1  0
 38 49  1  0
 38 50  1  0
M  END
>  <Id>  (11) 
11c

>  <IUPAC>  (11) 
1-(2-(3-tert-Butylphenoxy)pyridin-3-yl)-3-(2,4-difluorophenyl)urea

>  <Structure>  (11) 
Fc1c(NC(=O)Nc2c(Oc3cc(C(C)(C)C)ccc3)nccc2)ccc(F)c1

>  <R1>  (11) 
2, 4-di-F-Ph

>  <R2>  (11) 
3-t-Bu

>  <X>  (11) 
O

>  <hP2Y1Ki_nM>  (11) 
33

>  <SEM_hP2Y1Ki_nM>  (11) 
7.0

$$$$
6b
     RDKit          3D

 41 43  0  0  0  0  0  0  0  0999 V2000
   20.9090   -4.0370    3.5340 C   0  0  0  0  0  0  0  0  0  0  0  0
   20.4510   -3.9250    2.2110 C   0  0  0  0  0  0  0  0  0  0  0  0
   13.9480    2.7980    9.8870 C   0  0  0  0  0  0  0  0  0  0  0  0
   19.2130   -0.8270   10.8090 C   0  0  0  0  0  0  0  0  0  0  0  0
   13.8350    3.9800    9.1610 C   0  0  0  0  0  0  0  0  0  0  0  0
   20.2100   -3.4120    4.5740 C   0  0  0  0  0  0  0  0  0  0  0  0
   18.9740   -1.3450    9.5300 C   0  0  0  0  0  0  0  0  0  0  0  0
   14.8950    1.8450    9.5120 C   0  0  0  0  0  0  0  0  0  0  0  0
   19.3200   -3.1410    1.9380 C   0  0  0  0  0  0  0  0  0  0  0  0
   15.6790    3.2890    7.6790 C   0  0  0  0  0  0  0  0  0  0  0  0
   18.6160    0.3800   11.1810 C   0  0  0  0  0  0  0  0  0  0  0  0
   14.6920    4.2110    8.0830 C   0  0  0  0  0  0  0  0  0  0  0  0
   19.0610   -2.6340    4.3200 C   0  0  0  0  0  0  0  0  0  0  0  0
   18.1440   -0.6620    8.6170 C   0  0  0  0  0  0  0  0  0  0  0  0
   15.7890    2.0930    8.4540 C   0  0  0  0  0  0  0  0  0  0  0  0
   18.6320   -2.5130    2.9870 C   0  0  0  0  0  0  0  0  0  0  0  0
   17.5480    0.5430    9.0210 C   0  0  0  0  0  0  0  0  0  0  0  0
   18.7480   -1.7520    6.5550 C   0  0  0  0  0  0  0  0  0  0  0  0
   17.7940    1.0570   10.2520 N   0  0  0  0  0  0  0  0  0  0  0  0
   18.3500   -1.9640    5.2670 N   0  0  0  0  0  0  0  0  0  0  0  0
   17.8710   -1.0600    7.3410 N   0  0  0  0  0  0  0  0  0  0  0  0
   19.7850   -2.2390    7.0160 O   0  0  0  0  0  0  0  0  0  0  0  0
   16.7350    1.1560    8.0870 O   0  0  0  0  0  0  0  0  0  0  0  0
   21.8014   -4.6059    3.7495 H   0  0  0  0  0  0  0  0  0  0  0  0
   20.9647   -4.4377    1.4112 H   0  0  0  0  0  0  0  0  0  0  0  0
   13.3056    2.6195   10.7366 H   0  0  0  0  0  0  0  0  0  0  0  0
   19.8524   -1.3553   11.5007 H   0  0  0  0  0  0  0  0  0  0  0  0
   13.0894    4.7137    9.4296 H   0  0  0  0  0  0  0  0  0  0  0  0
   20.5572   -3.5278    5.5901 H   0  0  0  0  0  0  0  0  0  0  0  0
   19.4311   -2.2793    9.2392 H   0  0  0  0  0  0  0  0  0  0  0  0
   14.9427    0.9044   10.0406 H   0  0  0  0  0  0  0  0  0  0  0  0
   18.9790   -3.0209    0.9203 H   0  0  0  0  0  0  0  0  0  0  0  0
   16.3182    3.4764    6.8289 H   0  0  0  0  0  0  0  0  0  0  0  0
   18.7806    0.7906   12.1663 H   0  0  0  0  0  0  0  0  0  0  0  0
   17.4517   -1.5921    4.9936 H   0  0  0  0  0  0  0  0  0  0  0  0
   16.9668   -0.8293    6.9546 H   0  0  0  0  0  0  0  0  0  0  0  0
   14.7252    5.5284    7.2850 C   0  0  0  0  0  0  0  0  0  0  0  0
   17.6300   -1.6763    2.6647 F   0  0  0  0  0  0  0  0  0  0  0  0
   13.9962    6.5378    7.8333 F   0  0  0  0  0  0  0  0  0  0  0  0
   15.9895    6.0419    7.1412 F   0  0  0  0  0  0  0  0  0  0  0  0
   14.2635    5.3822    6.0085 F   0  0  0  0  0  0  0  0  0  0  0  0
  1  2  2  0
  1  6  1  0
  1 24  1  0
  2  9  1  0
  2 25  1  0
  3  5  2  0
  3  8  1  0
  3 26  1  0
  4  7  2  0
  4 11  1  0
  4 27  1  0
  5 12  1  0
  5 28  1  0
  6 13  2  0
  6 29  1  0
  7 14  1  0
  7 30  1  0
  8 15  2  0
  8 31  1  0
  9 16  2  0
  9 32  1  0
 10 12  2  0
 10 15  1  0
 10 33  1  0
 11 19  2  0
 11 34  1  0
 12 37  1  0
 13 16  1  0
 13 20  1  0
 14 17  2  0
 14 21  1  0
 15 23  1  0
 16 38  1  0
 17 19  1  0
 17 23  1  0
 18 20  1  0
 18 21  1  0
 18 22  2  0
 20 35  1  0
 21 36  1  0
 37 39  1  0
 37 40  1  0
 37 41  1  0
M  END
>  <Id>  (12) 
6b

>  <IUPAC>  (12) 
1-(2-Fluorophenyl)-3-(2-(3-(trifluoromethyl)phenoxy)pyridin-3-yl)urea

>  <Structure>  (12) 
FC(F)(F)c1cc(Oc2c(NC(=O)Nc3c(F)cccc3)cccn2)ccc1

>  <R1>  (12) 
2-F-Ph

>  <R2>  (12) 
3-CF3

>  <X>  (12) 
O

>  <hP2Y1Ki_nM>  (12) 
47

>  <SEM_hP2Y1Ki_nM>  (12) 
27.0

$$$$
6h
     RDKit          3D

 44 46  0  0  0  0  0  0  0  0999 V2000
   13.9480    2.7980    9.8870 C   0  0  0  0  0  0  0  0  0  0  0  0
   19.2130   -0.8270   10.8090 C   0  0  0  0  0  0  0  0  0  0  0  0
   13.8350    3.9800    9.1610 C   0  0  0  0  0  0  0  0  0  0  0  0
   19.3200   -3.1410    1.9380 C   0  0  0  0  0  0  0  0  0  0  0  0
   20.9090   -4.0370    3.5340 C   0  0  0  0  0  0  0  0  0  0  0  0
   18.9740   -1.3450    9.5300 C   0  0  0  0  0  0  0  0  0  0  0  0
   18.6320   -2.5130    2.9870 C   0  0  0  0  0  0  0  0  0  0  0  0
   20.2100   -3.4120    4.5740 C   0  0  0  0  0  0  0  0  0  0  0  0
   14.8950    1.8450    9.5120 C   0  0  0  0  0  0  0  0  0  0  0  0
   15.6790    3.2890    7.6790 C   0  0  0  0  0  0  0  0  0  0  0  0
   18.6160    0.3800   11.1810 C   0  0  0  0  0  0  0  0  0  0  0  0
   20.4510   -3.9250    2.2110 C   0  0  0  0  0  0  0  0  0  0  0  0
   14.6920    4.2110    8.0830 C   0  0  0  0  0  0  0  0  0  0  0  0
   19.0610   -2.6340    4.3200 C   0  0  0  0  0  0  0  0  0  0  0  0
   18.1440   -0.6620    8.6170 C   0  0  0  0  0  0  0  0  0  0  0  0
   15.7890    2.0930    8.4540 C   0  0  0  0  0  0  0  0  0  0  0  0
   17.5480    0.5430    9.0210 C   0  0  0  0  0  0  0  0  0  0  0  0
   18.7480   -1.7520    6.5550 C   0  0  0  0  0  0  0  0  0  0  0  0
   17.7940    1.0570   10.2520 N   0  0  0  0  0  0  0  0  0  0  0  0
   18.3500   -1.9640    5.2670 N   0  0  0  0  0  0  0  0  0  0  0  0
   17.8710   -1.0600    7.3410 N   0  0  0  0  0  0  0  0  0  0  0  0
   19.7850   -2.2390    7.0160 O   0  0  0  0  0  0  0  0  0  0  0  0
   16.7350    1.1560    8.0870 O   0  0  0  0  0  0  0  0  0  0  0  0
   13.3056    2.6195   10.7366 H   0  0  0  0  0  0  0  0  0  0  0  0
   19.8524   -1.3553   11.5007 H   0  0  0  0  0  0  0  0  0  0  0  0
   13.0894    4.7137    9.4296 H   0  0  0  0  0  0  0  0  0  0  0  0
   18.9790   -3.0209    0.9203 H   0  0  0  0  0  0  0  0  0  0  0  0
   21.8014   -4.6059    3.7495 H   0  0  0  0  0  0  0  0  0  0  0  0
   19.4311   -2.2793    9.2392 H   0  0  0  0  0  0  0  0  0  0  0  0
   17.7542   -1.9241    2.7656 H   0  0  0  0  0  0  0  0  0  0  0  0
   20.5572   -3.5278    5.5901 H   0  0  0  0  0  0  0  0  0  0  0  0
   14.9427    0.9044   10.0406 H   0  0  0  0  0  0  0  0  0  0  0  0
   16.3182    3.4764    6.8289 H   0  0  0  0  0  0  0  0  0  0  0  0
   18.7806    0.7906   12.1663 H   0  0  0  0  0  0  0  0  0  0  0  0
   17.4517   -1.5921    4.9936 H   0  0  0  0  0  0  0  0  0  0  0  0
   16.9668   -0.8293    6.9546 H   0  0  0  0  0  0  0  0  0  0  0  0
   21.1373   -4.6533    1.0911 C   0  0  0  0  0  0  0  0  0  0  0  0
   14.7252    5.5284    7.2850 C   0  0  0  0  0  0  0  0  0  0  0  0
   13.9962    6.5378    7.8333 F   0  0  0  0  0  0  0  0  0  0  0  0
   15.9895    6.0419    7.1412 F   0  0  0  0  0  0  0  0  0  0  0  0
   14.2635    5.3822    6.0085 F   0  0  0  0  0  0  0  0  0  0  0  0
   21.4406   -5.6573    1.4078 H   0  0  0  0  0  0  0  0  0  0  0  0
   22.0173   -4.0937    0.7643 H   0  0  0  0  0  0  0  0  0  0  0  0
   20.4651   -4.7807    0.2335 H   0  0  0  0  0  0  0  0  0  0  0  0
  1  3  2  0
  1  9  1  0
  1 24  1  0
  2  6  2  0
  2 11  1  0
  2 25  1  0
  3 13  1  0
  3 26  1  0
  4  7  2  0
  4 12  1  0
  4 27  1  0
  5  8  1  0
  5 12  2  0
  5 28  1  0
  6 15  1  0
  6 29  1  0
  7 14  1  0
  7 30  1  0
  8 14  2  0
  8 31  1  0
  9 16  2  0
  9 32  1  0
 10 13  2  0
 10 16  1  0
 10 33  1  0
 11 19  2  0
 11 34  1  0
 12 37  1  0
 13 38  1  0
 14 20  1  0
 15 17  2  0
 15 21  1  0
 16 23  1  0
 17 19  1  0
 17 23  1  0
 18 20  1  0
 18 21  1  0
 18 22  2  0
 20 35  1  0
 21 36  1  0
 37 42  1  0
 37 43  1  0
 37 44  1  0
 38 39  1  0
 38 40  1  0
 38 41  1  0
M  END
>  <Id>  (13) 
6h

>  <IUPAC>  (13) 
1-(4-Methylphenyl)-3-(2-(3-(trifluoromethyl)phenoxy)pyridin-3-yl)urea

>  <Structure>  (13) 
FC(F)(F)c1cc(Oc2c(NC(=O)Nc3ccc(C)cc3)cccn2)ccc1

>  <R1>  (13) 
4-MePh

>  <R2>  (13) 
3-CF3

>  <X>  (13) 
O

>  <hP2Y1Ki_nM>  (13) 
48

>  <SEM_hP2Y1Ki_nM>  (13) 
28.0

$$$$
6g
     RDKit          3D

 41 43  0  0  0  0  0  0  0  0999 V2000
   13.9480    2.7980    9.8870 C   0  0  0  0  0  0  0  0  0  0  0  0
   19.2130   -0.8270   10.8090 C   0  0  0  0  0  0  0  0  0  0  0  0
   13.8350    3.9800    9.1610 C   0  0  0  0  0  0  0  0  0  0  0  0
   18.9740   -1.3450    9.5300 C   0  0  0  0  0  0  0  0  0  0  0  0
   20.2100   -3.4120    4.5740 C   0  0  0  0  0  0  0  0  0  0  0  0
   18.6320   -2.5130    2.9870 C   0  0  0  0  0  0  0  0  0  0  0  0
   14.8950    1.8450    9.5120 C   0  0  0  0  0  0  0  0  0  0  0  0
   20.9090   -4.0370    3.5340 C   0  0  0  0  0  0  0  0  0  0  0  0
   19.3200   -3.1410    1.9380 C   0  0  0  0  0  0  0  0  0  0  0  0
   15.6790    3.2890    7.6790 C   0  0  0  0  0  0  0  0  0  0  0  0
   18.6160    0.3800   11.1810 C   0  0  0  0  0  0  0  0  0  0  0  0
   14.6920    4.2110    8.0830 C   0  0  0  0  0  0  0  0  0  0  0  0
   19.0610   -2.6340    4.3200 C   0  0  0  0  0  0  0  0  0  0  0  0
   18.1440   -0.6620    8.6170 C   0  0  0  0  0  0  0  0  0  0  0  0
   15.7890    2.0930    8.4540 C   0  0  0  0  0  0  0  0  0  0  0  0
   20.4510   -3.9250    2.2110 C   0  0  0  0  0  0  0  0  0  0  0  0
   17.5480    0.5430    9.0210 C   0  0  0  0  0  0  0  0  0  0  0  0
   18.7480   -1.7520    6.5550 C   0  0  0  0  0  0  0  0  0  0  0  0
   17.7940    1.0570   10.2520 N   0  0  0  0  0  0  0  0  0  0  0  0
   18.3500   -1.9640    5.2670 N   0  0  0  0  0  0  0  0  0  0  0  0
   17.8710   -1.0600    7.3410 N   0  0  0  0  0  0  0  0  0  0  0  0
   19.7850   -2.2390    7.0160 O   0  0  0  0  0  0  0  0  0  0  0  0
   16.7350    1.1560    8.0870 O   0  0  0  0  0  0  0  0  0  0  0  0
   13.3056    2.6195   10.7366 H   0  0  0  0  0  0  0  0  0  0  0  0
   19.8524   -1.3553   11.5007 H   0  0  0  0  0  0  0  0  0  0  0  0
   13.0894    4.7137    9.4296 H   0  0  0  0  0  0  0  0  0  0  0  0
   19.4311   -2.2793    9.2392 H   0  0  0  0  0  0  0  0  0  0  0  0
   20.5572   -3.5278    5.5901 H   0  0  0  0  0  0  0  0  0  0  0  0
   17.7542   -1.9241    2.7656 H   0  0  0  0  0  0  0  0  0  0  0  0
   14.9427    0.9044   10.0406 H   0  0  0  0  0  0  0  0  0  0  0  0
   21.8014   -4.6059    3.7495 H   0  0  0  0  0  0  0  0  0  0  0  0
   18.9790   -3.0209    0.9203 H   0  0  0  0  0  0  0  0  0  0  0  0
   16.3182    3.4764    6.8289 H   0  0  0  0  0  0  0  0  0  0  0  0
   18.7806    0.7906   12.1663 H   0  0  0  0  0  0  0  0  0  0  0  0
   17.4517   -1.5921    4.9936 H   0  0  0  0  0  0  0  0  0  0  0  0
   16.9668   -0.8293    6.9546 H   0  0  0  0  0  0  0  0  0  0  0  0
   14.7252    5.5284    7.2850 C   0  0  0  0  0  0  0  0  0  0  0  0
   13.9962    6.5378    7.8333 F   0  0  0  0  0  0  0  0  0  0  0  0
   15.9895    6.0419    7.1412 F   0  0  0  0  0  0  0  0  0  0  0  0
   14.2635    5.3822    6.0085 F   0  0  0  0  0  0  0  0  0  0  0  0
   21.2717   -4.7323    0.9317 Cl  0  0  0  0  0  0  0  0  0  0  0  0
  1  3  2  0
  1  7  1  0
  1 24  1  0
  2  4  2  0
  2 11  1  0
  2 25  1  0
  3 12  1  0
  3 26  1  0
  4 14  1  0
  4 27  1  0
  5  8  2  0
  5 13  1  0
  5 28  1  0
  6  9  1  0
  6 13  2  0
  6 29  1  0
  7 15  2  0
  7 30  1  0
  8 16  1  0
  8 31  1  0
  9 16  2  0
  9 32  1  0
 10 12  2  0
 10 15  1  0
 10 33  1  0
 11 19  2  0
 11 34  1  0
 12 37  1  0
 13 20  1  0
 14 17  2  0
 14 21  1  0
 15 23  1  0
 16 41  1  0
 17 19  1  0
 17 23  1  0
 18 20  1  0
 18 21  1  0
 18 22  2  0
 20 35  1  0
 21 36  1  0
 37 38  1  0
 37 39  1  0
 37 40  1  0
M  END
>  <Id>  (14) 
6g

>  <IUPAC>  (14) 
1-(4-Chlorophenyl)-3-(2-(3-(trifluoromethyl)phenoxy)pyridin-3-yl)urea

>  <Structure>  (14) 
Clc1ccc(NC(=O)Nc2c(Oc3cc(C(F)(F)F)ccc3)nccc2)cc1

>  <R1>  (14) 
4-Cl-Ph

>  <R2>  (14) 
3-CF3

>  <X>  (14) 
O

>  <hP2Y1Ki_nM>  (14) 
69

>  <SEM_hP2Y1Ki_nM>  (14) 
23.0

$$$$
6i
     RDKit          3D

 53 55  0  0  0  0  0  0  0  0999 V2000
   13.9480    2.7980    9.8870 C   0  0  0  0  0  0  0  0  0  0  0  0
   19.2130   -0.8270   10.8090 C   0  0  0  0  0  0  0  0  0  0  0  0
   13.8350    3.9800    9.1610 C   0  0  0  0  0  0  0  0  0  0  0  0
   19.3200   -3.1410    1.9380 C   0  0  0  0  0  0  0  0  0  0  0  0
   20.9090   -4.0370    3.5340 C   0  0  0  0  0  0  0  0  0  0  0  0
   18.9740   -1.3450    9.5300 C   0  0  0  0  0  0  0  0  0  0  0  0
   18.6320   -2.5130    2.9870 C   0  0  0  0  0  0  0  0  0  0  0  0
   20.2100   -3.4120    4.5740 C   0  0  0  0  0  0  0  0  0  0  0  0
   14.8950    1.8450    9.5120 C   0  0  0  0  0  0  0  0  0  0  0  0
   15.6790    3.2890    7.6790 C   0  0  0  0  0  0  0  0  0  0  0  0
   18.6160    0.3800   11.1810 C   0  0  0  0  0  0  0  0  0  0  0  0
   20.4510   -3.9250    2.2110 C   0  0  0  0  0  0  0  0  0  0  0  0
   14.6920    4.2110    8.0830 C   0  0  0  0  0  0  0  0  0  0  0  0
   19.0610   -2.6340    4.3200 C   0  0  0  0  0  0  0  0  0  0  0  0
   18.1440   -0.6620    8.6170 C   0  0  0  0  0  0  0  0  0  0  0  0
   15.7890    2.0930    8.4540 C   0  0  0  0  0  0  0  0  0  0  0  0
   17.5480    0.5430    9.0210 C   0  0  0  0  0  0  0  0  0  0  0  0
   18.7480   -1.7520    6.5550 C   0  0  0  0  0  0  0  0  0  0  0  0
   17.7940    1.0570   10.2520 N   0  0  0  0  0  0  0  0  0  0  0  0
   18.3500   -1.9640    5.2670 N   0  0  0  0  0  0  0  0  0  0  0  0
   17.8710   -1.0600    7.3410 N   0  0  0  0  0  0  0  0  0  0  0  0
   19.7850   -2.2390    7.0160 O   0  0  0  0  0  0  0  0  0  0  0  0
   16.7350    1.1560    8.0870 O   0  0  0  0  0  0  0  0  0  0  0  0
   13.3056    2.6195   10.7366 H   0  0  0  0  0  0  0  0  0  0  0  0
   19.8524   -1.3553   11.5007 H   0  0  0  0  0  0  0  0  0  0  0  0
   13.0894    4.7137    9.4296 H   0  0  0  0  0  0  0  0  0  0  0  0
   18.9790   -3.0209    0.9203 H   0  0  0  0  0  0  0  0  0  0  0  0
   21.8014   -4.6059    3.7495 H   0  0  0  0  0  0  0  0  0  0  0  0
   19.4311   -2.2793    9.2392 H   0  0  0  0  0  0  0  0  0  0  0  0
   17.7542   -1.9241    2.7656 H   0  0  0  0  0  0  0  0  0  0  0  0
   20.5572   -3.5278    5.5901 H   0  0  0  0  0  0  0  0  0  0  0  0
   14.9427    0.9044   10.0406 H   0  0  0  0  0  0  0  0  0  0  0  0
   16.3182    3.4764    6.8289 H   0  0  0  0  0  0  0  0  0  0  0  0
   18.7806    0.7906   12.1663 H   0  0  0  0  0  0  0  0  0  0  0  0
   17.4517   -1.5921    4.9936 H   0  0  0  0  0  0  0  0  0  0  0  0
   16.9668   -0.8293    6.9546 H   0  0  0  0  0  0  0  0  0  0  0  0
   22.2352   -5.6351    1.4256 C   0  0  0  0  0  0  0  0  0  0  0  0
   21.7240   -3.6154    0.0654 C   0  0  0  0  0  0  0  0  0  0  0  0
   20.0681   -5.4991    0.2378 C   0  0  0  0  0  0  0  0  0  0  0  0
   21.1126   -4.6608    1.0192 C   0  0  0  0  0  0  0  0  0  0  0  0
   14.7252    5.5284    7.2850 C   0  0  0  0  0  0  0  0  0  0  0  0
   13.9962    6.5378    7.8333 F   0  0  0  0  0  0  0  0  0  0  0  0
   15.9895    6.0419    7.1412 F   0  0  0  0  0  0  0  0  0  0  0  0
   14.2635    5.3822    6.0085 F   0  0  0  0  0  0  0  0  0  0  0  0
   22.6761   -6.1159    0.5432 H   0  0  0  0  0  0  0  0  0  0  0  0
   21.8548   -6.4325    2.0739 H   0  0  0  0  0  0  0  0  0  0  0  0
   23.0458   -5.1178    1.9483 H   0  0  0  0  0  0  0  0  0  0  0  0
   20.9614   -2.9546   -0.3618 H   0  0  0  0  0  0  0  0  0  0  0  0
   22.4497   -2.9868    0.5929 H   0  0  0  0  0  0  0  0  0  0  0  0
   22.2405   -4.0962   -0.7734 H   0  0  0  0  0  0  0  0  0  0  0  0
   19.2797   -4.8822   -0.2059 H   0  0  0  0  0  0  0  0  0  0  0  0
   20.5377   -6.0458   -0.5894 H   0  0  0  0  0  0  0  0  0  0  0  0
   19.5841   -6.2340    0.8916 H   0  0  0  0  0  0  0  0  0  0  0  0
  1  3  2  0
  1  9  1  0
  1 24  1  0
  2  6  2  0
  2 11  1  0
  2 25  1  0
  3 13  1  0
  3 26  1  0
  4  7  2  0
  4 12  1  0
  4 27  1  0
  5  8  1  0
  5 12  2  0
  5 28  1  0
  6 15  1  0
  6 29  1  0
  7 14  1  0
  7 30  1  0
  8 14  2  0
  8 31  1  0
  9 16  2  0
  9 32  1  0
 10 13  2  0
 10 16  1  0
 10 33  1  0
 11 19  2  0
 11 34  1  0
 12 40  1  0
 13 41  1  0
 14 20  1  0
 15 17  2  0
 15 21  1  0
 16 23  1  0
 17 19  1  0
 17 23  1  0
 18 20  1  0
 18 21  1  0
 18 22  2  0
 20 35  1  0
 21 36  1  0
 37 40  1  0
 37 45  1  0
 37 46  1  0
 37 47  1  0
 38 40  1  0
 38 48  1  0
 38 49  1  0
 38 50  1  0
 39 40  1  0
 39 51  1  0
 39 52  1  0
 39 53  1  0
 41 42  1  0
 41 43  1  0
 41 44  1  0
M  END
>  <Id>  (15) 
6i

>  <IUPAC>  (15) 
1-(4-tert-Butylphenyl)-3-(2-(3-(trifluoromethyl)phenoxy)pyridin-3-yl)urea

>  <Structure>  (15) 
FC(F)(F)c1cc(Oc2c(NC(=O)Nc3ccc(C(C)(C)C)cc3)cccn2)ccc1

>  <R1>  (15) 
4-t-Bu-Ph

>  <R2>  (15) 
3-CF3

>  <X>  (15) 
O

>  <hP2Y1Ki_nM>  (15) 
31

>  <SEM_hP2Y1Ki_nM>  (15) 
4.0

$$$$
6l
     RDKit          3D

 45 47  0  0  0  0  0  0  0  0999 V2000
   13.9480    2.7980    9.8870 C   0  0  0  0  0  0  0  0  0  0  0  0
   19.2130   -0.8270   10.8090 C   0  0  0  0  0  0  0  0  0  0  0  0
   13.8350    3.9800    9.1610 C   0  0  0  0  0  0  0  0  0  0  0  0
   18.9740   -1.3450    9.5300 C   0  0  0  0  0  0  0  0  0  0  0  0
   20.2100   -3.4120    4.5740 C   0  0  0  0  0  0  0  0  0  0  0  0
   18.6320   -2.5130    2.9870 C   0  0  0  0  0  0  0  0  0  0  0  0
   14.8950    1.8450    9.5120 C   0  0  0  0  0  0  0  0  0  0  0  0
   20.9090   -4.0370    3.5340 C   0  0  0  0  0  0  0  0  0  0  0  0
   19.3200   -3.1410    1.9380 C   0  0  0  0  0  0  0  0  0  0  0  0
   15.6790    3.2890    7.6790 C   0  0  0  0  0  0  0  0  0  0  0  0
   18.6160    0.3800   11.1810 C   0  0  0  0  0  0  0  0  0  0  0  0
   14.6920    4.2110    8.0830 C   0  0  0  0  0  0  0  0  0  0  0  0
   19.0610   -2.6340    4.3200 C   0  0  0  0  0  0  0  0  0  0  0  0
   18.1440   -0.6620    8.6170 C   0  0  0  0  0  0  0  0  0  0  0  0
   20.4510   -3.9250    2.2110 C   0  0  0  0  0  0  0  0  0  0  0  0
   15.7890    2.0930    8.4540 C   0  0  0  0  0  0  0  0  0  0  0  0
   17.5480    0.5430    9.0210 C   0  0  0  0  0  0  0  0  0  0  0  0
   18.7480   -1.7520    6.5550 C   0  0  0  0  0  0  0  0  0  0  0  0
   17.7940    1.0570   10.2520 N   0  0  0  0  0  0  0  0  0  0  0  0
   18.3500   -1.9640    5.2670 N   0  0  0  0  0  0  0  0  0  0  0  0
   17.8710   -1.0600    7.3410 N   0  0  0  0  0  0  0  0  0  0  0  0
   19.7850   -2.2390    7.0160 O   0  0  0  0  0  0  0  0  0  0  0  0
   16.7350    1.1560    8.0870 O   0  0  0  0  0  0  0  0  0  0  0  0
   13.3056    2.6195   10.7366 H   0  0  0  0  0  0  0  0  0  0  0  0
   19.8524   -1.3553   11.5007 H   0  0  0  0  0  0  0  0  0  0  0  0
   13.0894    4.7137    9.4296 H   0  0  0  0  0  0  0  0  0  0  0  0
   19.4311   -2.2793    9.2392 H   0  0  0  0  0  0  0  0  0  0  0  0
   20.5572   -3.5278    5.5901 H   0  0  0  0  0  0  0  0  0  0  0  0
   17.7542   -1.9241    2.7656 H   0  0  0  0  0  0  0  0  0  0  0  0
   14.9427    0.9044   10.0406 H   0  0  0  0  0  0  0  0  0  0  0  0
   21.8014   -4.6059    3.7495 H   0  0  0  0  0  0  0  0  0  0  0  0
   18.9790   -3.0209    0.9203 H   0  0  0  0  0  0  0  0  0  0  0  0
   16.3182    3.4764    6.8289 H   0  0  0  0  0  0  0  0  0  0  0  0
   18.7806    0.7906   12.1663 H   0  0  0  0  0  0  0  0  0  0  0  0
   17.4517   -1.5921    4.9936 H   0  0  0  0  0  0  0  0  0  0  0  0
   16.9668   -0.8293    6.9546 H   0  0  0  0  0  0  0  0  0  0  0  0
   22.0487   -5.4806    1.2677 C   0  0  0  0  0  0  0  0  0  0  0  0
   14.7252    5.5284    7.2850 C   0  0  0  0  0  0  0  0  0  0  0  0
   20.9919   -4.5374    1.1052 O   0  0  0  0  0  0  0  0  0  0  0  0
   13.9962    6.5378    7.8333 F   0  0  0  0  0  0  0  0  0  0  0  0
   15.9895    6.0419    7.1412 F   0  0  0  0  0  0  0  0  0  0  0  0
   14.2635    5.3822    6.0085 F   0  0  0  0  0  0  0  0  0  0  0  0
   22.3288   -5.8411    0.2683 H   0  0  0  0  0  0  0  0  0  0  0  0
   21.7270   -6.3512    1.8484 H   0  0  0  0  0  0  0  0  0  0  0  0
   22.9351   -5.0148    1.7067 H   0  0  0  0  0  0  0  0  0  0  0  0
  1  3  2  0
  1  7  1  0
  1 24  1  0
  2  4  2  0
  2 11  1  0
  2 25  1  0
  3 12  1  0
  3 26  1  0
  4 14  1  0
  4 27  1  0
  5  8  2  0
  5 13  1  0
  5 28  1  0
  6  9  1  0
  6 13  2  0
  6 29  1  0
  7 16  2  0
  7 30  1  0
  8 15  1  0
  8 31  1  0
  9 15  2  0
  9 32  1  0
 10 12  2  0
 10 16  1  0
 10 33  1  0
 11 19  2  0
 11 34  1  0
 12 38  1  0
 13 20  1  0
 14 17  2  0
 14 21  1  0
 15 39  1  0
 16 23  1  0
 17 19  1  0
 17 23  1  0
 18 20  1  0
 18 21  1  0
 18 22  2  0
 20 35  1  0
 21 36  1  0
 37 39  1  0
 37 43  1  0
 37 44  1  0
 37 45  1  0
 38 40  1  0
 38 41  1  0
 38 42  1  0
M  END
>  <Id>  (16) 
6l

>  <IUPAC>  (16) 
1-(4-Methoxyphenyl)-3-(2-(3-(trifluoromethyl)phenoxy)pyridin-3-yl)urea

>  <Structure>  (16) 
FC(F)(F)c1cc(Oc2c(NC(=O)Nc3ccc(OC)cc3)cccn2)ccc1

>  <R1>  (16) 
4-OMe-Ph

>  <R2>  (16) 
3-CF3

>  <X>  (16) 
O

>  <hP2Y1Ki_nM>  (16) 
21

>  <SEM_hP2Y1Ki_nM>  (16) 
11.0

$$$$
6j
     RDKit          3D

 45 47  0  0  0  0  0  0  0  0999 V2000
   13.9480    2.7980    9.8870 C   0  0  0  0  0  0  0  0  0  0  0  0
   19.2130   -0.8270   10.8090 C   0  0  0  0  0  0  0  0  0  0  0  0
   13.8350    3.9800    9.1610 C   0  0  0  0  0  0  0  0  0  0  0  0
   18.9740   -1.3450    9.5300 C   0  0  0  0  0  0  0  0  0  0  0  0
   20.2100   -3.4120    4.5740 C   0  0  0  0  0  0  0  0  0  0  0  0
   18.6320   -2.5130    2.9870 C   0  0  0  0  0  0  0  0  0  0  0  0
   14.8950    1.8450    9.5120 C   0  0  0  0  0  0  0  0  0  0  0  0
   20.9090   -4.0370    3.5340 C   0  0  0  0  0  0  0  0  0  0  0  0
   19.3200   -3.1410    1.9380 C   0  0  0  0  0  0  0  0  0  0  0  0
   15.6790    3.2890    7.6790 C   0  0  0  0  0  0  0  0  0  0  0  0
   18.6160    0.3800   11.1810 C   0  0  0  0  0  0  0  0  0  0  0  0
   14.6920    4.2110    8.0830 C   0  0  0  0  0  0  0  0  0  0  0  0
   19.0610   -2.6340    4.3200 C   0  0  0  0  0  0  0  0  0  0  0  0
   18.1440   -0.6620    8.6170 C   0  0  0  0  0  0  0  0  0  0  0  0
   20.4510   -3.9250    2.2110 C   0  0  0  0  0  0  0  0  0  0  0  0
   15.7890    2.0930    8.4540 C   0  0  0  0  0  0  0  0  0  0  0  0
   17.5480    0.5430    9.0210 C   0  0  0  0  0  0  0  0  0  0  0  0
   18.7480   -1.7520    6.5550 C   0  0  0  0  0  0  0  0  0  0  0  0
   17.7940    1.0570   10.2520 N   0  0  0  0  0  0  0  0  0  0  0  0
   18.3500   -1.9640    5.2670 N   0  0  0  0  0  0  0  0  0  0  0  0
   17.8710   -1.0600    7.3410 N   0  0  0  0  0  0  0  0  0  0  0  0
   19.7850   -2.2390    7.0160 O   0  0  0  0  0  0  0  0  0  0  0  0
   16.7350    1.1560    8.0870 O   0  0  0  0  0  0  0  0  0  0  0  0
   13.3056    2.6195   10.7366 H   0  0  0  0  0  0  0  0  0  0  0  0
   19.8524   -1.3553   11.5007 H   0  0  0  0  0  0  0  0  0  0  0  0
   13.0894    4.7137    9.4296 H   0  0  0  0  0  0  0  0  0  0  0  0
   19.4311   -2.2793    9.2392 H   0  0  0  0  0  0  0  0  0  0  0  0
   20.5572   -3.5278    5.5901 H   0  0  0  0  0  0  0  0  0  0  0  0
   17.7542   -1.9241    2.7656 H   0  0  0  0  0  0  0  0  0  0  0  0
   14.9427    0.9044   10.0406 H   0  0  0  0  0  0  0  0  0  0  0  0
   21.8014   -4.6059    3.7495 H   0  0  0  0  0  0  0  0  0  0  0  0
   18.9790   -3.0209    0.9203 H   0  0  0  0  0  0  0  0  0  0  0  0
   16.3182    3.4764    6.8289 H   0  0  0  0  0  0  0  0  0  0  0  0
   18.7806    0.7906   12.1663 H   0  0  0  0  0  0  0  0  0  0  0  0
   17.4517   -1.5921    4.9936 H   0  0  0  0  0  0  0  0  0  0  0  0
   16.9668   -0.8293    6.9546 H   0  0  0  0  0  0  0  0  0  0  0  0
   14.7252    5.5284    7.2850 C   0  0  0  0  0  0  0  0  0  0  0  0
   22.0358   -5.4750    1.1861 C   0  0  0  0  0  0  0  0  0  0  0  0
   20.9820   -4.5246    1.0959 O   0  0  0  0  0  0  0  0  0  0  0  0
   13.9962    6.5378    7.8333 F   0  0  0  0  0  0  0  0  0  0  0  0
   15.9895    6.0419    7.1412 F   0  0  0  0  0  0  0  0  0  0  0  0
   14.2635    5.3822    6.0085 F   0  0  0  0  0  0  0  0  0  0  0  0
   21.6658   -6.5618    1.8947 F   0  0  0  0  0  0  0  0  0  0  0  0
   23.1462   -4.9330    1.7249 F   0  0  0  0  0  0  0  0  0  0  0  0
   22.3452   -5.8878   -0.0685 F   0  0  0  0  0  0  0  0  0  0  0  0
  1  3  2  0
  1  7  1  0
  1 24  1  0
  2  4  2  0
  2 11  1  0
  2 25  1  0
  3 12  1  0
  3 26  1  0
  4 14  1  0
  4 27  1  0
  5  8  2  0
  5 13  1  0
  5 28  1  0
  6  9  1  0
  6 13  2  0
  6 29  1  0
  7 16  2  0
  7 30  1  0
  8 15  1  0
  8 31  1  0
  9 15  2  0
  9 32  1  0
 10 12  2  0
 10 16  1  0
 10 33  1  0
 11 19  2  0
 11 34  1  0
 12 37  1  0
 13 20  1  0
 14 17  2  0
 14 21  1  0
 15 39  1  0
 16 23  1  0
 17 19  1  0
 17 23  1  0
 18 20  1  0
 18 21  1  0
 18 22  2  0
 20 35  1  0
 21 36  1  0
 37 40  1  0
 37 41  1  0
 37 42  1  0
 38 39  1  0
 38 43  1  0
 38 44  1  0
 38 45  1  0
M  END
>  <Id>  (17) 
6j

>  <IUPAC>  (17) 
1-(4-(Trifluoromethoxy)phenyl)-3-(2-(3-(trifluoromethyl)phenoxy)pyridin-3-yl)urea

>  <Structure>  (17) 
FC(F)(F)Oc1ccc(NC(=O)Nc2c(Oc3cc(C(F)(F)F)ccc3)nccc2)cc1

>  <R1>  (17) 
4-OCF3-Ph

>  <R2>  (17) 
3-CF3

>  <X>  (17) 
O

>  <hP2Y1Ki_nM>  (17) 
313

>  <SEM_hP2Y1Ki_nM>  (17) 
198.0

$$$$
13
     RDKit          3D

 53 55  0  0  0  0  0  0  0  0999 V2000
   13.8353    3.9803    9.1609 C   0  0  0  0  0  0  0  0  0  0  0  0
   13.9482    2.7982    9.8869 C   0  0  0  0  0  0  0  0  0  0  0  0
   19.2130   -0.8270   10.8090 C   0  0  0  0  0  0  0  0  0  0  0  0
   14.6924    4.2112    8.0830 C   0  0  0  0  0  0  0  0  0  0  0  0
   19.3200   -3.1410    1.9380 C   0  0  0  0  0  0  0  0  0  0  0  0
   20.9090   -4.0370    3.5340 C   0  0  0  0  0  0  0  0  0  0  0  0
   18.9740   -1.3450    9.5300 C   0  0  0  0  0  0  0  0  0  0  0  0
   18.6320   -2.5130    2.9870 C   0  0  0  0  0  0  0  0  0  0  0  0
   20.2100   -3.4120    4.5740 C   0  0  0  0  0  0  0  0  0  0  0  0
   14.8952    1.8452    9.5119 C   0  0  0  0  0  0  0  0  0  0  0  0
   18.6160    0.3800   11.1810 C   0  0  0  0  0  0  0  0  0  0  0  0
   20.4510   -3.9250    2.2110 C   0  0  0  0  0  0  0  0  0  0  0  0
   15.6794    3.2892    7.6790 C   0  0  0  0  0  0  0  0  0  0  0  0
   19.0610   -2.6340    4.3200 C   0  0  0  0  0  0  0  0  0  0  0  0
   18.1440   -0.6620    8.6170 C   0  0  0  0  0  0  0  0  0  0  0  0
   15.7892    2.0931    8.4539 C   0  0  0  0  0  0  0  0  0  0  0  0
   17.5480    0.5430    9.0210 C   0  0  0  0  0  0  0  0  0  0  0  0
   18.7480   -1.7520    6.5550 C   0  0  0  0  0  0  0  0  0  0  0  0
   17.7940    1.0570   10.2520 N   0  0  0  0  0  0  0  0  0  0  0  0
   18.3500   -1.9640    5.2670 N   0  0  0  0  0  0  0  0  0  0  0  0
   17.8710   -1.0600    7.3410 N   0  0  0  0  0  0  0  0  0  0  0  0
   19.7850   -2.2390    7.0160 O   0  0  0  0  0  0  0  0  0  0  0  0
   13.0914    4.7215    9.4367 H   0  0  0  0  0  0  0  0  0  0  0  0
   13.2903    2.6109   10.7295 H   0  0  0  0  0  0  0  0  0  0  0  0
   19.8483   -1.3617   11.5076 H   0  0  0  0  0  0  0  0  0  0  0  0
   14.5414    5.1565    7.5728 H   0  0  0  0  0  0  0  0  0  0  0  0
   18.9626   -3.0253    0.9184 H   0  0  0  0  0  0  0  0  0  0  0  0
   21.7956   -4.6212    3.7650 H   0  0  0  0  0  0  0  0  0  0  0  0
   19.4311   -2.2945    9.2732 H   0  0  0  0  0  0  0  0  0  0  0  0
   17.7527   -1.9181    2.7479 H   0  0  0  0  0  0  0  0  0  0  0  0
   20.5929   -3.5689    5.5730 H   0  0  0  0  0  0  0  0  0  0  0  0
   14.9246    0.9120   10.0744 H   0  0  0  0  0  0  0  0  0  0  0  0
   18.7546    0.8312   12.1527 H   0  0  0  0  0  0  0  0  0  0  0  0
   17.4693   -1.5445    4.9831 H   0  0  0  0  0  0  0  0  0  0  0  0
   17.0097   -0.7374    6.9115 H   0  0  0  0  0  0  0  0  0  0  0  0
   21.1301   -4.6030    1.1530 C   0  0  0  0  0  0  0  0  0  0  0  0
   16.6989    2.7674    5.3960 C   0  0  0  0  0  0  0  0  0  0  0  0
   18.1901    3.8093    7.1419 C   0  0  0  0  0  0  0  0  0  0  0  0
   16.5226    5.1613    5.9612 C   0  0  0  0  0  0  0  0  0  0  0  0
   16.7407    3.7422    6.5841 C   0  0  0  0  0  0  0  0  0  0  0  0
   16.7352    1.1561    8.0869 S   0  0  0  0  0  0  0  0  0  0  0  0
   21.9901   -5.1718    1.5219 H   0  0  0  0  0  0  0  0  0  0  0  0
   21.5034   -3.8891    0.4114 H   0  0  0  0  0  0  0  0  0  0  0  0
   20.4603   -5.3096    0.6520 H   0  0  0  0  0  0  0  0  0  0  0  0
   15.6806    2.6958    5.0005 H   0  0  0  0  0  0  0  0  0  0  0  0
   17.3491    3.1028    4.5770 H   0  0  0  0  0  0  0  0  0  0  0  0
   17.0329    1.7662    5.6744 H   0  0  0  0  0  0  0  0  0  0  0  0
   18.2623    4.5136    7.9795 H   0  0  0  0  0  0  0  0  0  0  0  0
   18.5616    2.8410    7.4797 H   0  0  0  0  0  0  0  0  0  0  0  0
   18.8978    4.1589    6.3734 H   0  0  0  0  0  0  0  0  0  0  0  0
   16.6312    5.9595    6.7054 H   0  0  0  0  0  0  0  0  0  0  0  0
   17.2703    5.3725    5.1794 H   0  0  0  0  0  0  0  0  0  0  0  0
   15.5424    5.2537    5.4846 H   0  0  0  0  0  0  0  0  0  0  0  0
  1  2  2  0
  1  4  1  0
  1 23  1  0
  2 10  1  0
  2 24  1  0
  3  7  2  0
  3 11  1  0
  3 25  1  0
  4 13  2  0
  4 26  1  0
  5  8  2  0
  5 12  1  0
  5 27  1  0
  6  9  1  0
  6 12  2  0
  6 28  1  0
  7 15  1  0
  7 29  1  0
  8 14  1  0
  8 30  1  0
  9 14  2  0
  9 31  1  0
 10 16  2  0
 10 32  1  0
 11 19  2  0
 11 33  1  0
 12 36  1  0
 13 16  1  0
 13 40  1  0
 14 20  1  0
 15 17  2  0
 15 21  1  0
 16 41  1  0
 17 19  1  0
 17 41  1  0
 18 20  1  0
 18 21  1  0
 18 22  2  0
 20 34  1  0
 21 35  1  0
 36 42  1  0
 36 43  1  0
 36 44  1  0
 37 40  1  0
 37 45  1  0
 37 46  1  0
 37 47  1  0
 38 40  1  0
 38 48  1  0
 38 49  1  0
 38 50  1  0
 39 40  1  0
 39 51  1  0
 39 52  1  0
 39 53  1  0
M  END
>  <Id>  (18) 
13

>  <IUPAC>  (18) 
1-(2-(2-tert-Butylphenylthio)pyridin-3-yl)-3-p-tolylurea

>  <Structure>  (18) 
S(c1c(NC(=O)Nc2ccc(C)cc2)cccn1)c1c(C(C)(C)C)cccc1

>  <R1>  (18) 
4-MePh

>  <R2>  (18) 
2-t-Bu

>  <X>  (18) 
S

>  <hP2Y1Ki_nM>  (18) 
20

>  <SEM_hP2Y1Ki_nM>  (18) 
8.0

$$$$
6q
     RDKit          3D

 41 43  0  0  0  0  0  0  0  0999 V2000
   13.9480    2.7980    9.8870 C   0  0  0  0  0  0  0  0  0  0  0  0
   19.2130   -0.8270   10.8090 C   0  0  0  0  0  0  0  0  0  0  0  0
   13.8350    3.9800    9.1610 C   0  0  0  0  0  0  0  0  0  0  0  0
   18.9740   -1.3450    9.5300 C   0  0  0  0  0  0  0  0  0  0  0  0
   14.8950    1.8450    9.5120 C   0  0  0  0  0  0  0  0  0  0  0  0
   15.6790    3.2890    7.6790 C   0  0  0  0  0  0  0  0  0  0  0  0
   18.6320   -2.5130    2.9870 C   0  0  0  0  0  0  0  0  0  0  0  0
   20.2100   -3.4120    4.5740 C   0  0  0  0  0  0  0  0  0  0  0  0
   20.4510   -3.9250    2.2110 C   0  0  0  0  0  0  0  0  0  0  0  0
   18.6160    0.3800   11.1810 C   0  0  0  0  0  0  0  0  0  0  0  0
   14.6920    4.2110    8.0830 C   0  0  0  0  0  0  0  0  0  0  0  0
   18.1440   -0.6620    8.6170 C   0  0  0  0  0  0  0  0  0  0  0  0
   19.0610   -2.6340    4.3200 C   0  0  0  0  0  0  0  0  0  0  0  0
   15.7890    2.0930    8.4540 C   0  0  0  0  0  0  0  0  0  0  0  0
   19.3200   -3.1410    1.9380 C   0  0  0  0  0  0  0  0  0  0  0  0
   20.9090   -4.0370    3.5340 C   0  0  0  0  0  0  0  0  0  0  0  0
   17.5480    0.5430    9.0210 C   0  0  0  0  0  0  0  0  0  0  0  0
   18.7480   -1.7520    6.5550 C   0  0  0  0  0  0  0  0  0  0  0  0
   17.7940    1.0570   10.2520 N   0  0  0  0  0  0  0  0  0  0  0  0
   17.8710   -1.0600    7.3410 N   0  0  0  0  0  0  0  0  0  0  0  0
   18.3500   -1.9640    5.2670 N   0  0  0  0  0  0  0  0  0  0  0  0
   19.7850   -2.2390    7.0160 O   0  0  0  0  0  0  0  0  0  0  0  0
   16.7350    1.1560    8.0870 O   0  0  0  0  0  0  0  0  0  0  0  0
   13.3056    2.6195   10.7366 H   0  0  0  0  0  0  0  0  0  0  0  0
   19.8524   -1.3553   11.5007 H   0  0  0  0  0  0  0  0  0  0  0  0
   13.0894    4.7137    9.4296 H   0  0  0  0  0  0  0  0  0  0  0  0
   19.4311   -2.2793    9.2392 H   0  0  0  0  0  0  0  0  0  0  0  0
   14.9427    0.9044   10.0406 H   0  0  0  0  0  0  0  0  0  0  0  0
   16.3182    3.4764    6.8289 H   0  0  0  0  0  0  0  0  0  0  0  0
   17.7542   -1.9241    2.7656 H   0  0  0  0  0  0  0  0  0  0  0  0
   20.5572   -3.5278    5.5901 H   0  0  0  0  0  0  0  0  0  0  0  0
   20.9647   -4.4377    1.4112 H   0  0  0  0  0  0  0  0  0  0  0  0
   18.7806    0.7906   12.1663 H   0  0  0  0  0  0  0  0  0  0  0  0
   16.9668   -0.8293    6.9546 H   0  0  0  0  0  0  0  0  0  0  0  0
   17.4517   -1.5921    4.9936 H   0  0  0  0  0  0  0  0  0  0  0  0
   14.7252    5.5284    7.2850 C   0  0  0  0  0  0  0  0  0  0  0  0
   13.9962    6.5378    7.8333 F   0  0  0  0  0  0  0  0  0  0  0  0
   15.9895    6.0419    7.1412 F   0  0  0  0  0  0  0  0  0  0  0  0
   14.2635    5.3822    6.0085 F   0  0  0  0  0  0  0  0  0  0  0  0
   18.7745   -2.9043    0.3205 Cl  0  0  0  0  0  0  0  0  0  0  0  0
   22.2403   -5.0816    3.8439 Cl  0  0  0  0  0  0  0  0  0  0  0  0
  1  3  2  0
  1  5  1  0
  1 24  1  0
  2  4  2  0
  2 10  1  0
  2 25  1  0
  3 11  1  0
  3 26  1  0
  4 12  1  0
  4 27  1  0
  5 14  2  0
  5 28  1  0
  6 11  2  0
  6 14  1  0
  6 29  1  0
  7 13  2  0
  7 15  1  0
  7 30  1  0
  8 13  1  0
  8 16  2  0
  8 31  1  0
  9 15  2  0
  9 16  1  0
  9 32  1  0
 10 19  2  0
 10 33  1  0
 11 36  1  0
 12 17  2  0
 12 20  1  0
 13 21  1  0
 14 23  1  0
 15 40  1  0
 16 41  1  0
 17 19  1  0
 17 23  1  0
 18 20  1  0
 18 21  1  0
 18 22  2  0
 20 34  1  0
 21 35  1  0
 36 37  1  0
 36 38  1  0
 36 39  1  0
M  END
>  <Id>  (19) 
6q

>  <IUPAC>  (19) 
1-(3,5-Chlorophenyl)-3-(2-(3-(trifluoromethyl)phenoxy)pyridin-3-yl)urea

>  <Structure>  (19) 
Clc1cc(Cl)cc(NC(=O)Nc2c(Oc3cc(C(F)(F)F)ccc3)nccc2)c1

>  <R1>  (19) 
3,5-di-Cl-Ph

>  <R2>  (19) 
3-CF3

>  <X>  (19) 
O

>  <hP2Y1Ki_nM>  (19) 
169

>  <SEM_hP2Y1Ki_nM>  (19) 
38.0

$$$$
6d
     RDKit          3D

 41 43  0  0  0  0  0  0  0  0999 V2000
   13.9480    2.7980    9.8870 C   0  0  0  0  0  0  0  0  0  0  0  0
   19.3200   -3.1410    1.9380 C   0  0  0  0  0  0  0  0  0  0  0  0
   19.2130   -0.8270   10.8090 C   0  0  0  0  0  0  0  0  0  0  0  0
   13.8350    3.9800    9.1610 C   0  0  0  0  0  0  0  0  0  0  0  0
   18.6320   -2.5130    2.9870 C   0  0  0  0  0  0  0  0  0  0  0  0
   18.9740   -1.3450    9.5300 C   0  0  0  0  0  0  0  0  0  0  0  0
   14.8950    1.8450    9.5120 C   0  0  0  0  0  0  0  0  0  0  0  0
   20.4510   -3.9250    2.2110 C   0  0  0  0  0  0  0  0  0  0  0  0
   15.6790    3.2890    7.6790 C   0  0  0  0  0  0  0  0  0  0  0  0
   20.2100   -3.4120    4.5740 C   0  0  0  0  0  0  0  0  0  0  0  0
   18.6160    0.3800   11.1810 C   0  0  0  0  0  0  0  0  0  0  0  0
   14.6920    4.2110    8.0830 C   0  0  0  0  0  0  0  0  0  0  0  0
   19.0610   -2.6340    4.3200 C   0  0  0  0  0  0  0  0  0  0  0  0
   18.1440   -0.6620    8.6170 C   0  0  0  0  0  0  0  0  0  0  0  0
   15.7890    2.0930    8.4540 C   0  0  0  0  0  0  0  0  0  0  0  0
   20.9090   -4.0370    3.5340 C   0  0  0  0  0  0  0  0  0  0  0  0
   17.5480    0.5430    9.0210 C   0  0  0  0  0  0  0  0  0  0  0  0
   18.7480   -1.7520    6.5550 C   0  0  0  0  0  0  0  0  0  0  0  0
   17.7940    1.0570   10.2520 N   0  0  0  0  0  0  0  0  0  0  0  0
   18.3500   -1.9640    5.2670 N   0  0  0  0  0  0  0  0  0  0  0  0
   17.8710   -1.0600    7.3410 N   0  0  0  0  0  0  0  0  0  0  0  0
   19.7850   -2.2390    7.0160 O   0  0  0  0  0  0  0  0  0  0  0  0
   16.7350    1.1560    8.0870 O   0  0  0  0  0  0  0  0  0  0  0  0
   13.3056    2.6195   10.7366 H   0  0  0  0  0  0  0  0  0  0  0  0
   18.9790   -3.0209    0.9203 H   0  0  0  0  0  0  0  0  0  0  0  0
   19.8524   -1.3553   11.5007 H   0  0  0  0  0  0  0  0  0  0  0  0
   13.0894    4.7137    9.4296 H   0  0  0  0  0  0  0  0  0  0  0  0
   17.7542   -1.9241    2.7656 H   0  0  0  0  0  0  0  0  0  0  0  0
   19.4311   -2.2793    9.2392 H   0  0  0  0  0  0  0  0  0  0  0  0
   14.9427    0.9044   10.0406 H   0  0  0  0  0  0  0  0  0  0  0  0
   20.9647   -4.4377    1.4112 H   0  0  0  0  0  0  0  0  0  0  0  0
   16.3182    3.4764    6.8289 H   0  0  0  0  0  0  0  0  0  0  0  0
   20.5572   -3.5278    5.5901 H   0  0  0  0  0  0  0  0  0  0  0  0
   18.7806    0.7906   12.1663 H   0  0  0  0  0  0  0  0  0  0  0  0
   17.4517   -1.5921    4.9936 H   0  0  0  0  0  0  0  0  0  0  0  0
   16.9668   -0.8293    6.9546 H   0  0  0  0  0  0  0  0  0  0  0  0
   14.7252    5.5284    7.2850 C   0  0  0  0  0  0  0  0  0  0  0  0
   21.9601   -4.8264    3.7800 F   0  0  0  0  0  0  0  0  0  0  0  0
   13.9962    6.5378    7.8333 F   0  0  0  0  0  0  0  0  0  0  0  0
   15.9895    6.0419    7.1412 F   0  0  0  0  0  0  0  0  0  0  0  0
   14.2635    5.3822    6.0085 F   0  0  0  0  0  0  0  0  0  0  0  0
  1  4  2  0
  1  7  1  0
  1 24  1  0
  2  5  2  0
  2  8  1  0
  2 25  1  0
  3  6  2  0
  3 11  1  0
  3 26  1  0
  4 12  1  0
  4 27  1  0
  5 13  1  0
  5 28  1  0
  6 14  1  0
  6 29  1  0
  7 15  2  0
  7 30  1  0
  8 16  2  0
  8 31  1  0
  9 12  2  0
  9 15  1  0
  9 32  1  0
 10 13  2  0
 10 16  1  0
 10 33  1  0
 11 19  2  0
 11 34  1  0
 12 37  1  0
 13 20  1  0
 14 17  2  0
 14 21  1  0
 15 23  1  0
 16 38  1  0
 17 19  1  0
 17 23  1  0
 18 20  1  0
 18 21  1  0
 18 22  2  0
 20 35  1  0
 21 36  1  0
 37 39  1  0
 37 40  1  0
 37 41  1  0
M  END
>  <Id>  (20) 
6d

>  <IUPAC>  (20) 
1-(3-Fluorophenyl)-3-(2-(3-(trifluoromethyl)phenoxy)pyridin-3-yl)urea

>  <Structure>  (20) 
FC(F)(F)c1cc(Oc2c(NC(=O)Nc3cc(F)ccc3)cccn2)ccc1

>  <R1>  (20) 
3-F-Ph

>  <R2>  (20) 
3-CF3

>  <X>  (20) 
O

>  <hP2Y1Ki_nM>  (20) 
607

>  <SEM_hP2Y1Ki_nM>  (20) 
105.0

$$$$
6p
     RDKit          3D

 41 43  0  0  0  0  0  0  0  0999 V2000
   13.9480    2.7980    9.8870 C   0  0  0  0  0  0  0  0  0  0  0  0
   19.2130   -0.8270   10.8090 C   0  0  0  0  0  0  0  0  0  0  0  0
   13.8350    3.9800    9.1610 C   0  0  0  0  0  0  0  0  0  0  0  0
   18.9740   -1.3450    9.5300 C   0  0  0  0  0  0  0  0  0  0  0  0
   18.6320   -2.5130    2.9870 C   0  0  0  0  0  0  0  0  0  0  0  0
   14.8950    1.8450    9.5120 C   0  0  0  0  0  0  0  0  0  0  0  0
   19.3200   -3.1410    1.9380 C   0  0  0  0  0  0  0  0  0  0  0  0
   15.6790    3.2890    7.6790 C   0  0  0  0  0  0  0  0  0  0  0  0
   20.2100   -3.4120    4.5740 C   0  0  0  0  0  0  0  0  0  0  0  0
   18.6160    0.3800   11.1810 C   0  0  0  0  0  0  0  0  0  0  0  0
   14.6920    4.2110    8.0830 C   0  0  0  0  0  0  0  0  0  0  0  0
   19.0610   -2.6340    4.3200 C   0  0  0  0  0  0  0  0  0  0  0  0
   18.1440   -0.6620    8.6170 C   0  0  0  0  0  0  0  0  0  0  0  0
   15.7890    2.0930    8.4540 C   0  0  0  0  0  0  0  0  0  0  0  0
   20.4510   -3.9250    2.2110 C   0  0  0  0  0  0  0  0  0  0  0  0
   20.9090   -4.0370    3.5340 C   0  0  0  0  0  0  0  0  0  0  0  0
   17.5480    0.5430    9.0210 C   0  0  0  0  0  0  0  0  0  0  0  0
   18.7480   -1.7520    6.5550 C   0  0  0  0  0  0  0  0  0  0  0  0
   17.7940    1.0570   10.2520 N   0  0  0  0  0  0  0  0  0  0  0  0
   18.3500   -1.9640    5.2670 N   0  0  0  0  0  0  0  0  0  0  0  0
   17.8710   -1.0600    7.3410 N   0  0  0  0  0  0  0  0  0  0  0  0
   19.7850   -2.2390    7.0160 O   0  0  0  0  0  0  0  0  0  0  0  0
   16.7350    1.1560    8.0870 O   0  0  0  0  0  0  0  0  0  0  0  0
   13.3056    2.6195   10.7366 H   0  0  0  0  0  0  0  0  0  0  0  0
   19.8524   -1.3553   11.5007 H   0  0  0  0  0  0  0  0  0  0  0  0
   13.0894    4.7137    9.4296 H   0  0  0  0  0  0  0  0  0  0  0  0
   19.4311   -2.2793    9.2392 H   0  0  0  0  0  0  0  0  0  0  0  0
   17.7542   -1.9241    2.7656 H   0  0  0  0  0  0  0  0  0  0  0  0
   14.9427    0.9044   10.0406 H   0  0  0  0  0  0  0  0  0  0  0  0
   18.9790   -3.0209    0.9203 H   0  0  0  0  0  0  0  0  0  0  0  0
   16.3182    3.4764    6.8289 H   0  0  0  0  0  0  0  0  0  0  0  0
   20.5572   -3.5278    5.5901 H   0  0  0  0  0  0  0  0  0  0  0  0
   18.7806    0.7906   12.1663 H   0  0  0  0  0  0  0  0  0  0  0  0
   17.4517   -1.5921    4.9936 H   0  0  0  0  0  0  0  0  0  0  0  0
   16.9668   -0.8293    6.9546 H   0  0  0  0  0  0  0  0  0  0  0  0
   14.7252    5.5284    7.2850 C   0  0  0  0  0  0  0  0  0  0  0  0
   13.9962    6.5378    7.8333 F   0  0  0  0  0  0  0  0  0  0  0  0
   15.9895    6.0419    7.1412 F   0  0  0  0  0  0  0  0  0  0  0  0
   14.2635    5.3822    6.0085 F   0  0  0  0  0  0  0  0  0  0  0  0
   21.2019   -4.6890    0.8559 Cl  0  0  0  0  0  0  0  0  0  0  0  0
   22.2455   -5.0679    3.8958 Cl  0  0  0  0  0  0  0  0  0  0  0  0
  1  3  2  0
  1  6  1  0
  1 24  1  0
  2  4  2  0
  2 10  1  0
  2 25  1  0
  3 11  1  0
  3 26  1  0
  4 13  1  0
  4 27  1  0
  5  7  2  0
  5 12  1  0
  5 28  1  0
  6 14  2  0
  6 29  1  0
  7 15  1  0
  7 30  1  0
  8 11  2  0
  8 14  1  0
  8 31  1  0
  9 12  2  0
  9 16  1  0
  9 32  1  0
 10 19  2  0
 10 33  1  0
 11 36  1  0
 12 20  1  0
 13 17  2  0
 13 21  1  0
 14 23  1  0
 15 16  2  0
 15 40  1  0
 16 41  1  0
 17 19  1  0
 17 23  1  0
 18 20  1  0
 18 21  1  0
 18 22  2  0
 20 34  1  0
 21 35  1  0
 36 37  1  0
 36 38  1  0
 36 39  1  0
M  END
>  <Id>  (21) 
6p

>  <IUPAC>  (21) 
1-(3,4-Chlorophenyl)-3-(2-(3-(trifluoromethyl)phenoxy)pyridin-3-yl)urea

>  <Structure>  (21) 
Clc1c(Cl)ccc(NC(=O)Nc2c(Oc3cc(C(F)(F)F)ccc3)nccc2)c1

>  <R1>  (21) 
3,4-di-Cl-Ph

>  <R2>  (21) 
3-CF3

>  <X>  (21) 
O

>  <hP2Y1Ki_nM>  (21) 
84

>  <SEM_hP2Y1Ki_nM>  (21) 
16.0

$$$$
6a
     RDKit          3D

 41 43  0  0  0  0  0  0  0  0999 V2000
   20.4510   -3.9250    2.2110 C   0  0  0  0  0  0  0  0  0  0  0  0
   20.9090   -4.0370    3.5340 C   0  0  0  0  0  0  0  0  0  0  0  0
   19.3200   -3.1410    1.9380 C   0  0  0  0  0  0  0  0  0  0  0  0
   13.9480    2.7980    9.8870 C   0  0  0  0  0  0  0  0  0  0  0  0
   19.2130   -0.8270   10.8090 C   0  0  0  0  0  0  0  0  0  0  0  0
   13.8350    3.9800    9.1610 C   0  0  0  0  0  0  0  0  0  0  0  0
   20.2100   -3.4120    4.5740 C   0  0  0  0  0  0  0  0  0  0  0  0
   18.6320   -2.5130    2.9870 C   0  0  0  0  0  0  0  0  0  0  0  0
   18.9740   -1.3450    9.5300 C   0  0  0  0  0  0  0  0  0  0  0  0
   14.8950    1.8450    9.5120 C   0  0  0  0  0  0  0  0  0  0  0  0
   15.6790    3.2890    7.6790 C   0  0  0  0  0  0  0  0  0  0  0  0
   18.6160    0.3800   11.1810 C   0  0  0  0  0  0  0  0  0  0  0  0
   14.6920    4.2110    8.0830 C   0  0  0  0  0  0  0  0  0  0  0  0
   19.0610   -2.6340    4.3200 C   0  0  0  0  0  0  0  0  0  0  0  0
   18.1440   -0.6620    8.6170 C   0  0  0  0  0  0  0  0  0  0  0  0
   15.7890    2.0930    8.4540 C   0  0  0  0  0  0  0  0  0  0  0  0
   17.5480    0.5430    9.0210 C   0  0  0  0  0  0  0  0  0  0  0  0
   18.7480   -1.7520    6.5550 C   0  0  0  0  0  0  0  0  0  0  0  0
   17.7940    1.0570   10.2520 N   0  0  0  0  0  0  0  0  0  0  0  0
   18.3500   -1.9640    5.2670 N   0  0  0  0  0  0  0  0  0  0  0  0
   17.8710   -1.0600    7.3410 N   0  0  0  0  0  0  0  0  0  0  0  0
   19.7850   -2.2390    7.0160 O   0  0  0  0  0  0  0  0  0  0  0  0
   16.7350    1.1560    8.0870 O   0  0  0  0  0  0  0  0  0  0  0  0
   20.9647   -4.4377    1.4112 H   0  0  0  0  0  0  0  0  0  0  0  0
   21.8014   -4.6059    3.7495 H   0  0  0  0  0  0  0  0  0  0  0  0
   18.9790   -3.0209    0.9203 H   0  0  0  0  0  0  0  0  0  0  0  0
   13.3056    2.6195   10.7366 H   0  0  0  0  0  0  0  0  0  0  0  0
   19.8524   -1.3553   11.5007 H   0  0  0  0  0  0  0  0  0  0  0  0
   13.0894    4.7137    9.4296 H   0  0  0  0  0  0  0  0  0  0  0  0
   20.5572   -3.5278    5.5901 H   0  0  0  0  0  0  0  0  0  0  0  0
   17.7542   -1.9241    2.7656 H   0  0  0  0  0  0  0  0  0  0  0  0
   19.4311   -2.2793    9.2392 H   0  0  0  0  0  0  0  0  0  0  0  0
   14.9427    0.9044   10.0406 H   0  0  0  0  0  0  0  0  0  0  0  0
   16.3182    3.4764    6.8289 H   0  0  0  0  0  0  0  0  0  0  0  0
   18.7806    0.7906   12.1663 H   0  0  0  0  0  0  0  0  0  0  0  0
   17.4517   -1.5921    4.9936 H   0  0  0  0  0  0  0  0  0  0  0  0
   16.9668   -0.8293    6.9546 H   0  0  0  0  0  0  0  0  0  0  0  0
   14.7252    5.5284    7.2850 C   0  0  0  0  0  0  0  0  0  0  0  0
   13.9962    6.5378    7.8333 F   0  0  0  0  0  0  0  0  0  0  0  0
   15.9895    6.0419    7.1412 F   0  0  0  0  0  0  0  0  0  0  0  0
   14.2635    5.3822    6.0085 F   0  0  0  0  0  0  0  0  0  0  0  0
  1  2  2  0
  1  3  1  0
  1 24  1  0
  2  7  1  0
  2 25  1  0
  3  8  2  0
  3 26  1  0
  4  6  2  0
  4 10  1  0
  4 27  1  0
  5  9  2  0
  5 12  1  0
  5 28  1  0
  6 13  1  0
  6 29  1  0
  7 14  2  0
  7 30  1  0
  8 14  1  0
  8 31  1  0
  9 15  1  0
  9 32  1  0
 10 16  2  0
 10 33  1  0
 11 13  2  0
 11 16  1  0
 11 34  1  0
 12 19  2  0
 12 35  1  0
 13 38  1  0
 14 20  1  0
 15 17  2  0
 15 21  1  0
 16 23  1  0
 17 19  1  0
 17 23  1  0
 18 20  1  0
 18 21  1  0
 18 22  2  0
 20 36  1  0
 21 37  1  0
 38 39  1  0
 38 40  1  0
 38 41  1  0
M  END
>  <Id>  (22) 
6a

>  <IUPAC>  (22) 
1-Phenyl-3-(2-(3-(trifluoromethyl)phenoxy)pyridin-3-yl)urea

>  <Structure>  (22) 
FC(F)(F)c1cc(Oc2c(NC(=O)Nc3ccccc3)cccn2)ccc1

>  <R1>  (22) 
Ph

>  <R2>  (22) 
3-CF3

>  <X>  (22) 
O

>  <hP2Y1Ki_nM>  (22) 
171

>  <SEM_hP2Y1Ki_nM>  (22) 
105.0

$$$$
6m
     RDKit          3D

 49 51  0  0  0  0  0  0  0  0999 V2000
   13.9480    2.7980    9.8870 C   0  0  0  0  0  0  0  0  0  0  0  0
   19.2130   -0.8270   10.8090 C   0  0  0  0  0  0  0  0  0  0  0  0
   13.8350    3.9800    9.1610 C   0  0  0  0  0  0  0  0  0  0  0  0
   18.9740   -1.3450    9.5300 C   0  0  0  0  0  0  0  0  0  0  0  0
   18.6320   -2.5130    2.9870 C   0  0  0  0  0  0  0  0  0  0  0  0
   20.2100   -3.4120    4.5740 C   0  0  0  0  0  0  0  0  0  0  0  0
   19.3200   -3.1410    1.9380 C   0  0  0  0  0  0  0  0  0  0  0  0
   20.9090   -4.0370    3.5340 C   0  0  0  0  0  0  0  0  0  0  0  0
   14.8950    1.8450    9.5120 C   0  0  0  0  0  0  0  0  0  0  0  0
   15.6790    3.2890    7.6790 C   0  0  0  0  0  0  0  0  0  0  0  0
   18.6160    0.3800   11.1810 C   0  0  0  0  0  0  0  0  0  0  0  0
   14.6920    4.2110    8.0830 C   0  0  0  0  0  0  0  0  0  0  0  0
   19.0610   -2.6340    4.3200 C   0  0  0  0  0  0  0  0  0  0  0  0
   20.4510   -3.9250    2.2110 C   0  0  0  0  0  0  0  0  0  0  0  0
   18.1440   -0.6620    8.6170 C   0  0  0  0  0  0  0  0  0  0  0  0
   15.7890    2.0930    8.4540 C   0  0  0  0  0  0  0  0  0  0  0  0
   17.5480    0.5430    9.0210 C   0  0  0  0  0  0  0  0  0  0  0  0
   18.7480   -1.7520    6.5550 C   0  0  0  0  0  0  0  0  0  0  0  0
   17.7940    1.0570   10.2520 N   0  0  0  0  0  0  0  0  0  0  0  0
   18.3500   -1.9640    5.2670 N   0  0  0  0  0  0  0  0  0  0  0  0
   17.8710   -1.0600    7.3410 N   0  0  0  0  0  0  0  0  0  0  0  0
   19.7850   -2.2390    7.0160 O   0  0  0  0  0  0  0  0  0  0  0  0
   16.7350    1.1560    8.0870 O   0  0  0  0  0  0  0  0  0  0  0  0
   13.3056    2.6195   10.7366 H   0  0  0  0  0  0  0  0  0  0  0  0
   19.8524   -1.3553   11.5007 H   0  0  0  0  0  0  0  0  0  0  0  0
   13.0894    4.7137    9.4296 H   0  0  0  0  0  0  0  0  0  0  0  0
   19.4311   -2.2793    9.2392 H   0  0  0  0  0  0  0  0  0  0  0  0
   17.7542   -1.9241    2.7656 H   0  0  0  0  0  0  0  0  0  0  0  0
   20.5572   -3.5278    5.5901 H   0  0  0  0  0  0  0  0  0  0  0  0
   18.9790   -3.0209    0.9203 H   0  0  0  0  0  0  0  0  0  0  0  0
   21.8014   -4.6059    3.7495 H   0  0  0  0  0  0  0  0  0  0  0  0
   14.9427    0.9044   10.0406 H   0  0  0  0  0  0  0  0  0  0  0  0
   16.3182    3.4764    6.8289 H   0  0  0  0  0  0  0  0  0  0  0  0
   18.7806    0.7906   12.1663 H   0  0  0  0  0  0  0  0  0  0  0  0
   17.4517   -1.5921    4.9936 H   0  0  0  0  0  0  0  0  0  0  0  0
   16.9668   -0.8293    6.9546 H   0  0  0  0  0  0  0  0  0  0  0  0
   20.1396   -5.4605    0.3547 C   0  0  0  0  0  0  0  0  0  0  0  0
   22.3776   -5.1761    1.3117 C   0  0  0  0  0  0  0  0  0  0  0  0
   14.7252    5.5284    7.2850 C   0  0  0  0  0  0  0  0  0  0  0  0
   21.0557   -4.5950    1.1154 N   0  0  0  0  0  0  0  0  0  0  0  0
   13.9962    6.5378    7.8333 F   0  0  0  0  0  0  0  0  0  0  0  0
   15.9895    6.0419    7.1412 F   0  0  0  0  0  0  0  0  0  0  0  0
   14.2635    5.3822    6.0085 F   0  0  0  0  0  0  0  0  0  0  0  0
   19.2521   -4.9323   -0.0057 H   0  0  0  0  0  0  0  0  0  0  0  0
   19.8188   -6.3132    0.9645 H   0  0  0  0  0  0  0  0  0  0  0  0
   20.6464   -5.8528   -0.5348 H   0  0  0  0  0  0  0  0  0  0  0  0
   22.3185   -6.1016    1.8938 H   0  0  0  0  0  0  0  0  0  0  0  0
   22.8177   -5.4144    0.3365 H   0  0  0  0  0  0  0  0  0  0  0  0
   23.0512   -4.4667    1.7999 H   0  0  0  0  0  0  0  0  0  0  0  0
  1  3  2  0
  1  9  1  0
  1 24  1  0
  2  4  2  0
  2 11  1  0
  2 25  1  0
  3 12  1  0
  3 26  1  0
  4 15  1  0
  4 27  1  0
  5  7  2  0
  5 13  1  0
  5 28  1  0
  6  8  1  0
  6 13  2  0
  6 29  1  0
  7 14  1  0
  7 30  1  0
  8 14  2  0
  8 31  1  0
  9 16  2  0
  9 32  1  0
 10 12  2  0
 10 16  1  0
 10 33  1  0
 11 19  2  0
 11 34  1  0
 12 39  1  0
 13 20  1  0
 14 40  1  0
 15 17  2  0
 15 21  1  0
 16 23  1  0
 17 19  1  0
 17 23  1  0
 18 20  1  0
 18 21  1  0
 18 22  2  0
 20 35  1  0
 21 36  1  0
 37 40  1  0
 37 44  1  0
 37 45  1  0
 37 46  1  0
 38 40  1  0
 38 47  1  0
 38 48  1  0
 38 49  1  0
 39 41  1  0
 39 42  1  0
 39 43  1  0
M  END
>  <Id>  (23) 
6m

>  <IUPAC>  (23) 
1-(4-Dimethylaminophenyl)-3-(2-(3-(trifluoromethyl)phenoxy)pyridin-3-yl)urea

>  <Structure>  (23) 
FC(F)(F)c1cc(Oc2c(NC(=O)Nc3ccc(N(C)C)cc3)cccn2)ccc1

>  <R1>  (23) 
4-NMe2-Ph

>  <R2>  (23) 
3-CF3

>  <X>  (23) 
O

>  <hP2Y1Ki_nM>  (23) 
506

>  <SEM_hP2Y1Ki_nM>  (23) 
85.0

$$$$
11a
     RDKit          3D

 38 40  0  0  0  0  0  0  0  0999 V2000
   13.8350    3.9800    9.1610 C   0  0  0  0  0  0  0  0  0  0  0  0
   13.9480    2.7980    9.8870 C   0  0  0  0  0  0  0  0  0  0  0  0
   14.6920    4.2110    8.0830 C   0  0  0  0  0  0  0  0  0  0  0  0
   19.2130   -0.8270   10.8090 C   0  0  0  0  0  0  0  0  0  0  0  0
   18.9740   -1.3450    9.5300 C   0  0  0  0  0  0  0  0  0  0  0  0
   20.2100   -3.4120    4.5740 C   0  0  0  0  0  0  0  0  0  0  0  0
   14.8950    1.8450    9.5120 C   0  0  0  0  0  0  0  0  0  0  0  0
   15.6790    3.2890    7.6790 C   0  0  0  0  0  0  0  0  0  0  0  0
   20.9090   -4.0370    3.5340 C   0  0  0  0  0  0  0  0  0  0  0  0
   19.3200   -3.1410    1.9380 C   0  0  0  0  0  0  0  0  0  0  0  0
   18.6160    0.3800   11.1810 C   0  0  0  0  0  0  0  0  0  0  0  0
   19.0610   -2.6340    4.3200 C   0  0  0  0  0  0  0  0  0  0  0  0
   18.1440   -0.6620    8.6170 C   0  0  0  0  0  0  0  0  0  0  0  0
   15.7890    2.0930    8.4540 C   0  0  0  0  0  0  0  0  0  0  0  0
   20.4510   -3.9250    2.2110 C   0  0  0  0  0  0  0  0  0  0  0  0
   18.6320   -2.5130    2.9870 C   0  0  0  0  0  0  0  0  0  0  0  0
   17.5480    0.5430    9.0210 C   0  0  0  0  0  0  0  0  0  0  0  0
   18.7480   -1.7520    6.5550 C   0  0  0  0  0  0  0  0  0  0  0  0
   17.7940    1.0570   10.2520 N   0  0  0  0  0  0  0  0  0  0  0  0
   18.3500   -1.9640    5.2670 N   0  0  0  0  0  0  0  0  0  0  0  0
   17.8710   -1.0600    7.3410 N   0  0  0  0  0  0  0  0  0  0  0  0
   19.7850   -2.2390    7.0160 O   0  0  0  0  0  0  0  0  0  0  0  0
   16.7350    1.1560    8.0870 O   0  0  0  0  0  0  0  0  0  0  0  0
   13.0894    4.7137    9.4296 H   0  0  0  0  0  0  0  0  0  0  0  0
   13.3056    2.6195   10.7366 H   0  0  0  0  0  0  0  0  0  0  0  0
   14.5944    5.1364    7.5348 H   0  0  0  0  0  0  0  0  0  0  0  0
   19.8524   -1.3553   11.5007 H   0  0  0  0  0  0  0  0  0  0  0  0
   19.4311   -2.2793    9.2392 H   0  0  0  0  0  0  0  0  0  0  0  0
   20.5572   -3.5278    5.5901 H   0  0  0  0  0  0  0  0  0  0  0  0
   14.9427    0.9044   10.0406 H   0  0  0  0  0  0  0  0  0  0  0  0
   16.3182    3.4764    6.8289 H   0  0  0  0  0  0  0  0  0  0  0  0
   21.8014   -4.6059    3.7495 H   0  0  0  0  0  0  0  0  0  0  0  0
   18.9790   -3.0209    0.9203 H   0  0  0  0  0  0  0  0  0  0  0  0
   18.7806    0.7906   12.1663 H   0  0  0  0  0  0  0  0  0  0  0  0
   17.4517   -1.5921    4.9936 H   0  0  0  0  0  0  0  0  0  0  0  0
   16.9668   -0.8293    6.9546 H   0  0  0  0  0  0  0  0  0  0  0  0
   21.0951   -4.4846    1.1801 F   0  0  0  0  0  0  0  0  0  0  0  0
   17.5932   -1.7025    2.7181 F   0  0  0  0  0  0  0  0  0  0  0  0
  1  2  2  0
  1  3  1  0
  1 24  1  0
  2  7  1  0
  2 25  1  0
  3  8  2  0
  3 26  1  0
  4  5  2  0
  4 11  1  0
  4 27  1  0
  5 13  1  0
  5 28  1  0
  6  9  2  0
  6 12  1  0
  6 29  1  0
  7 14  2  0
  7 30  1  0
  8 14  1  0
  8 31  1  0
  9 15  1  0
  9 32  1  0
 10 15  2  0
 10 16  1  0
 10 33  1  0
 11 19  2  0
 11 34  1  0
 12 16  2  0
 12 20  1  0
 13 17  2  0
 13 21  1  0
 14 23  1  0
 15 37  1  0
 16 38  1  0
 17 19  1  0
 17 23  1  0
 18 20  1  0
 18 21  1  0
 18 22  2  0
 20 35  1  0
 21 36  1  0
M  END
>  <Id>  (24) 
11a

>  <IUPAC>  (24) 
1-(2,4-Difluorophenyl)-3-(2-phenoxypyridin-3-yl)urea

>  <Structure>  (24) 
Fc1c(NC(=O)Nc2c(Oc3ccccc3)nccc2)ccc(F)c1

>  <R1>  (24) 
2, 4-di-F-Ph

>  <R2>  (24) 
H

>  <X>  (24) 
O

>  <hP2Y1Ki_nM>  (24) 
2000

>  <SEM_hP2Y1Ki_nM>  (24) 
1158.0

$$$$
11e
     RDKit          3D

 44 46  0  0  0  0  0  0  0  0999 V2000
   13.8350    3.9800    9.1610 C   0  0  0  0  0  0  0  0  0  0  0  0
   13.9480    2.7980    9.8870 C   0  0  0  0  0  0  0  0  0  0  0  0
   19.2130   -0.8270   10.8090 C   0  0  0  0  0  0  0  0  0  0  0  0
   14.6920    4.2110    8.0830 C   0  0  0  0  0  0  0  0  0  0  0  0
   18.9740   -1.3450    9.5300 C   0  0  0  0  0  0  0  0  0  0  0  0
   20.2100   -3.4120    4.5740 C   0  0  0  0  0  0  0  0  0  0  0  0
   14.8950    1.8450    9.5120 C   0  0  0  0  0  0  0  0  0  0  0  0
   20.9090   -4.0370    3.5340 C   0  0  0  0  0  0  0  0  0  0  0  0
   19.3200   -3.1410    1.9380 C   0  0  0  0  0  0  0  0  0  0  0  0
   18.6160    0.3800   11.1810 C   0  0  0  0  0  0  0  0  0  0  0  0
   15.6790    3.2890    7.6790 C   0  0  0  0  0  0  0  0  0  0  0  0
   19.0610   -2.6340    4.3200 C   0  0  0  0  0  0  0  0  0  0  0  0
   18.1440   -0.6620    8.6170 C   0  0  0  0  0  0  0  0  0  0  0  0
   15.7890    2.0930    8.4540 C   0  0  0  0  0  0  0  0  0  0  0  0
   20.4510   -3.9250    2.2110 C   0  0  0  0  0  0  0  0  0  0  0  0
   18.6320   -2.5130    2.9870 C   0  0  0  0  0  0  0  0  0  0  0  0
   17.5480    0.5430    9.0210 C   0  0  0  0  0  0  0  0  0  0  0  0
   18.7480   -1.7520    6.5550 C   0  0  0  0  0  0  0  0  0  0  0  0
   17.7940    1.0570   10.2520 N   0  0  0  0  0  0  0  0  0  0  0  0
   18.3500   -1.9640    5.2670 N   0  0  0  0  0  0  0  0  0  0  0  0
   17.8710   -1.0600    7.3410 N   0  0  0  0  0  0  0  0  0  0  0  0
   19.7850   -2.2390    7.0160 O   0  0  0  0  0  0  0  0  0  0  0  0
   16.7350    1.1560    8.0870 O   0  0  0  0  0  0  0  0  0  0  0  0
   13.0894    4.7137    9.4296 H   0  0  0  0  0  0  0  0  0  0  0  0
   13.3056    2.6195   10.7366 H   0  0  0  0  0  0  0  0  0  0  0  0
   19.8524   -1.3553   11.5007 H   0  0  0  0  0  0  0  0  0  0  0  0
   14.5944    5.1364    7.5348 H   0  0  0  0  0  0  0  0  0  0  0  0
   19.4311   -2.2793    9.2392 H   0  0  0  0  0  0  0  0  0  0  0  0
   20.5572   -3.5278    5.5901 H   0  0  0  0  0  0  0  0  0  0  0  0
   14.9427    0.9044   10.0406 H   0  0  0  0  0  0  0  0  0  0  0  0
   21.8014   -4.6059    3.7495 H   0  0  0  0  0  0  0  0  0  0  0  0
   18.9790   -3.0209    0.9203 H   0  0  0  0  0  0  0  0  0  0  0  0
   18.7806    0.7906   12.1663 H   0  0  0  0  0  0  0  0  0  0  0  0
   17.4517   -1.5921    4.9936 H   0  0  0  0  0  0  0  0  0  0  0  0
   16.9668   -0.8293    6.9546 H   0  0  0  0  0  0  0  0  0  0  0  0
   17.8497    4.2822    7.1512 C   0  0  0  0  0  0  0  0  0  0  0  0
   16.6198    3.6127    6.5664 C   0  0  0  0  0  0  0  0  0  0  0  0
   21.0996   -4.4915    1.1858 F   0  0  0  0  0  0  0  0  0  0  0  0
   17.6127   -1.6822    2.7099 F   0  0  0  0  0  0  0  0  0  0  0  0
   18.5582    4.5372    6.3611 H   0  0  0  0  0  0  0  0  0  0  0  0
   17.5761    5.2006    7.6837 H   0  0  0  0  0  0  0  0  0  0  0  0
   18.3514    3.6229    7.8685 H   0  0  0  0  0  0  0  0  0  0  0  0
   16.8917    2.7019    6.0217 H   0  0  0  0  0  0  0  0  0  0  0  0
   16.1298    4.2748    5.8431 H   0  0  0  0  0  0  0  0  0  0  0  0
  1  2  2  0
  1  4  1  0
  1 24  1  0
  2  7  1  0
  2 25  1  0
  3  5  2  0
  3 10  1  0
  3 26  1  0
  4 11  2  0
  4 27  1  0
  5 13  1  0
  5 28  1  0
  6  8  2  0
  6 12  1  0
  6 29  1  0
  7 14  2  0
  7 30  1  0
  8 15  1  0
  8 31  1  0
  9 15  2  0
  9 16  1  0
  9 32  1  0
 10 19  2  0
 10 33  1  0
 11 14  1  0
 11 37  1  0
 12 16  2  0
 12 20  1  0
 13 17  2  0
 13 21  1  0
 14 23  1  0
 15 38  1  0
 16 39  1  0
 17 19  1  0
 17 23  1  0
 18 20  1  0
 18 21  1  0
 18 22  2  0
 20 34  1  0
 21 35  1  0
 36 37  1  0
 36 40  1  0
 36 41  1  0
 36 42  1  0
 37 43  1  0
 37 44  1  0
M  END
>  <Id>  (25) 
11e

>  <IUPAC>  (25) 
1-(2,4-Difluorophenyl)-3-(2-(2-ethylphenoxy)pyridin-3-yl)urea

>  <Structure>  (25) 
Fc1c(NC(=O)Nc2c(Oc3c(CC)cccc3)nccc2)ccc(F)c1

>  <R1>  (25) 
2, 4-di-F-Ph

>  <R2>  (25) 
2-Et

>  <X>  (25) 
O

>  <hP2Y1Ki_nM>  (25) 
77

>  <SEM_hP2Y1Ki_nM>  (25) 
6.0

$$$$
6f
     RDKit          3D

 41 43  0  0  0  0  0  0  0  0999 V2000
   13.9480    2.7980    9.8870 C   0  0  0  0  0  0  0  0  0  0  0  0
   19.2130   -0.8270   10.8090 C   0  0  0  0  0  0  0  0  0  0  0  0
   13.8350    3.9800    9.1610 C   0  0  0  0  0  0  0  0  0  0  0  0
   18.9740   -1.3450    9.5300 C   0  0  0  0  0  0  0  0  0  0  0  0
   20.2100   -3.4120    4.5740 C   0  0  0  0  0  0  0  0  0  0  0  0
   18.6320   -2.5130    2.9870 C   0  0  0  0  0  0  0  0  0  0  0  0
   14.8950    1.8450    9.5120 C   0  0  0  0  0  0  0  0  0  0  0  0
   20.9090   -4.0370    3.5340 C   0  0  0  0  0  0  0  0  0  0  0  0
   19.3200   -3.1410    1.9380 C   0  0  0  0  0  0  0  0  0  0  0  0
   15.6790    3.2890    7.6790 C   0  0  0  0  0  0  0  0  0  0  0  0
   18.6160    0.3800   11.1810 C   0  0  0  0  0  0  0  0  0  0  0  0
   14.6920    4.2110    8.0830 C   0  0  0  0  0  0  0  0  0  0  0  0
   19.0610   -2.6340    4.3200 C   0  0  0  0  0  0  0  0  0  0  0  0
   18.1440   -0.6620    8.6170 C   0  0  0  0  0  0  0  0  0  0  0  0
   15.7890    2.0930    8.4540 C   0  0  0  0  0  0  0  0  0  0  0  0
   20.4510   -3.9250    2.2110 C   0  0  0  0  0  0  0  0  0  0  0  0
   17.5480    0.5430    9.0210 C   0  0  0  0  0  0  0  0  0  0  0  0
   18.7480   -1.7520    6.5550 C   0  0  0  0  0  0  0  0  0  0  0  0
   17.7940    1.0570   10.2520 N   0  0  0  0  0  0  0  0  0  0  0  0
   18.3500   -1.9640    5.2670 N   0  0  0  0  0  0  0  0  0  0  0  0
   17.8710   -1.0600    7.3410 N   0  0  0  0  0  0  0  0  0  0  0  0
   19.7850   -2.2390    7.0160 O   0  0  0  0  0  0  0  0  0  0  0  0
   16.7350    1.1560    8.0870 O   0  0  0  0  0  0  0  0  0  0  0  0
   13.3056    2.6195   10.7366 H   0  0  0  0  0  0  0  0  0  0  0  0
   19.8524   -1.3553   11.5007 H   0  0  0  0  0  0  0  0  0  0  0  0
   13.0894    4.7137    9.4296 H   0  0  0  0  0  0  0  0  0  0  0  0
   19.4311   -2.2793    9.2392 H   0  0  0  0  0  0  0  0  0  0  0  0
   20.5572   -3.5278    5.5901 H   0  0  0  0  0  0  0  0  0  0  0  0
   17.7542   -1.9241    2.7656 H   0  0  0  0  0  0  0  0  0  0  0  0
   14.9427    0.9044   10.0406 H   0  0  0  0  0  0  0  0  0  0  0  0
   21.8014   -4.6059    3.7495 H   0  0  0  0  0  0  0  0  0  0  0  0
   18.9790   -3.0209    0.9203 H   0  0  0  0  0  0  0  0  0  0  0  0
   16.3182    3.4764    6.8289 H   0  0  0  0  0  0  0  0  0  0  0  0
   18.7806    0.7906   12.1663 H   0  0  0  0  0  0  0  0  0  0  0  0
   17.4517   -1.5921    4.9936 H   0  0  0  0  0  0  0  0  0  0  0  0
   16.9668   -0.8293    6.9546 H   0  0  0  0  0  0  0  0  0  0  0  0
   14.7252    5.5284    7.2850 C   0  0  0  0  0  0  0  0  0  0  0  0
   21.0943   -4.5478    1.2154 F   0  0  0  0  0  0  0  0  0  0  0  0
   13.9962    6.5378    7.8333 F   0  0  0  0  0  0  0  0  0  0  0  0
   15.9895    6.0419    7.1412 F   0  0  0  0  0  0  0  0  0  0  0  0
   14.2635    5.3822    6.0085 F   0  0  0  0  0  0  0  0  0  0  0  0
  1  3  2  0
  1  7  1  0
  1 24  1  0
  2  4  2  0
  2 11  1  0
  2 25  1  0
  3 12  1  0
  3 26  1  0
  4 14  1  0
  4 27  1  0
  5  8  2  0
  5 13  1  0
  5 28  1  0
  6  9  1  0
  6 13  2  0
  6 29  1  0
  7 15  2  0
  7 30  1  0
  8 16  1  0
  8 31  1  0
  9 16  2  0
  9 32  1  0
 10 12  2  0
 10 15  1  0
 10 33  1  0
 11 19  2  0
 11 34  1  0
 12 37  1  0
 13 20  1  0
 14 17  2  0
 14 21  1  0
 15 23  1  0
 16 38  1  0
 17 19  1  0
 17 23  1  0
 18 20  1  0
 18 21  1  0
 18 22  2  0
 20 35  1  0
 21 36  1  0
 37 39  1  0
 37 40  1  0
 37 41  1  0
M  END
>  <Id>  (26) 
6f

>  <IUPAC>  (26) 
1-(4-Fluorophenyl)-3-(2-(3-(trifluoromethyl)phenoxy)pyridin-3-yl)urea

>  <Structure>  (26) 
FC(F)(F)c1cc(Oc2c(NC(=O)Nc3ccc(F)cc3)cccn2)ccc1

>  <R1>  (26) 
4-F-Ph

>  <R2>  (26) 
3-CF3

>  <X>  (26) 
O

>  <hP2Y1Ki_nM>  (26) 
145

>  <SEM_hP2Y1Ki_nM>  (26) 
28.0

$$$$
18
     RDKit          3D

 59 61  0  0  0  0  0  0  0  0999 V2000
   13.8350    3.9800    9.1610 C   0  0  0  0  0  0  0  0  0  0  0  0
   13.9480    2.7980    9.8870 C   0  0  0  0  0  0  0  0  0  0  0  0
   19.2130   -0.8270   10.8090 C   0  0  0  0  0  0  0  0  0  0  0  0
   14.6920    4.2110    8.0830 C   0  0  0  0  0  0  0  0  0  0  0  0
   20.9090   -4.0370    3.5340 C   0  0  0  0  0  0  0  0  0  0  0  0
   19.3200   -3.1410    1.9380 C   0  0  0  0  0  0  0  0  0  0  0  0
   18.9740   -1.3450    9.5300 C   0  0  0  0  0  0  0  0  0  0  0  0
   20.2100   -3.4120    4.5740 C   0  0  0  0  0  0  0  0  0  0  0  0
   18.6320   -2.5130    2.9870 C   0  0  0  0  0  0  0  0  0  0  0  0
   14.8950    1.8450    9.5120 C   0  0  0  0  0  0  0  0  0  0  0  0
   18.6160    0.3800   11.1810 C   0  0  0  0  0  0  0  0  0  0  0  0
   20.4510   -3.9250    2.2110 C   0  0  0  0  0  0  0  0  0  0  0  0
   15.6790    3.2890    7.6790 C   0  0  0  0  0  0  0  0  0  0  0  0
   19.0610   -2.6340    4.3200 C   0  0  0  0  0  0  0  0  0  0  0  0
   18.1440   -0.6620    8.6170 C   0  0  0  0  0  0  0  0  0  0  0  0
   15.7890    2.0930    8.4540 C   0  0  0  0  0  0  0  0  0  0  0  0
   17.5480    0.5430    9.0210 C   0  0  0  0  0  0  0  0  0  0  0  0
   18.7480   -1.7520    6.5550 C   0  0  0  0  0  0  0  0  0  0  0  0
   17.7940    1.0570   10.2520 N   0  0  0  0  0  0  0  0  0  0  0  0
   18.3500   -1.9640    5.2670 N   0  0  0  0  0  0  0  0  0  0  0  0
   17.8710   -1.0600    7.3410 N   0  0  0  0  0  0  0  0  0  0  0  0
   19.7850   -2.2390    7.0160 O   0  0  0  0  0  0  0  0  0  0  0  0
   16.7350    1.1560    8.0870 O   0  0  0  0  0  0  0  0  0  0  0  0
   13.0894    4.7137    9.4296 H   0  0  0  0  0  0  0  0  0  0  0  0
   13.3056    2.6195   10.7366 H   0  0  0  0  0  0  0  0  0  0  0  0
   19.8524   -1.3553   11.5007 H   0  0  0  0  0  0  0  0  0  0  0  0
   14.5944    5.1364    7.5348 H   0  0  0  0  0  0  0  0  0  0  0  0
   21.8014   -4.6059    3.7495 H   0  0  0  0  0  0  0  0  0  0  0  0
   18.9790   -3.0209    0.9203 H   0  0  0  0  0  0  0  0  0  0  0  0
   19.4311   -2.2793    9.2392 H   0  0  0  0  0  0  0  0  0  0  0  0
   20.5572   -3.5278    5.5901 H   0  0  0  0  0  0  0  0  0  0  0  0
   17.7542   -1.9241    2.7656 H   0  0  0  0  0  0  0  0  0  0  0  0
   14.9427    0.9044   10.0406 H   0  0  0  0  0  0  0  0  0  0  0  0
   18.7806    0.7906   12.1663 H   0  0  0  0  0  0  0  0  0  0  0  0
   17.4517   -1.5921    4.9936 H   0  0  0  0  0  0  0  0  0  0  0  0
   16.9668   -0.8293    6.9546 H   0  0  0  0  0  0  0  0  0  0  0  0
   17.4854    4.9094    6.8501 C   0  0  0  0  0  0  0  0  0  0  0  0
   15.9171    3.8485    5.2075 C   0  0  0  0  0  0  0  0  0  0  0  0
   22.2779   -5.5480    1.3501 C   0  0  0  0  0  0  0  0  0  0  0  0
   21.6797   -3.5322    0.0246 C   0  0  0  0  0  0  0  0  0  0  0  0
   20.0855   -5.4609    0.1978 C   0  0  0  0  0  0  0  0  0  0  0  0
   16.6492    3.6520    6.5415 C   0  0  0  0  0  0  0  0  0  0  0  0
   21.1176   -4.6083    0.9837 C   0  0  0  0  0  0  0  0  0  0  0  0
   18.0277    4.8006    7.7948 H   0  0  0  0  0  0  0  0  0  0  0  0
   18.2274    5.0916    6.0611 H   0  0  0  0  0  0  0  0  0  0  0  0
   16.8646    5.8099    6.9194 H   0  0  0  0  0  0  0  0  0  0  0  0
   15.3097    2.9713    4.9653 H   0  0  0  0  0  0  0  0  0  0  0  0
   15.2575    4.7232    5.2294 H   0  0  0  0  0  0  0  0  0  0  0  0
   16.6305    4.0004    4.3879 H   0  0  0  0  0  0  0  0  0  0  0  0
   22.7153   -6.0009    0.4510 H   0  0  0  0  0  0  0  0  0  0  0  0
   21.9363   -6.3652    1.9936 H   0  0  0  0  0  0  0  0  0  0  0  0
   23.0801   -5.0085    1.8629 H   0  0  0  0  0  0  0  0  0  0  0  0
   20.8918   -2.8911   -0.3872 H   0  0  0  0  0  0  0  0  0  0  0  0
   22.3980   -2.8851    0.5394 H   0  0  0  0  0  0  0  0  0  0  0  0
   22.1930   -3.9908   -0.8298 H   0  0  0  0  0  0  0  0  0  0  0  0
   19.2764   -4.8568   -0.2275 H   0  0  0  0  0  0  0  0  0  0  0  0
   20.5584   -5.9802   -0.6455 H   0  0  0  0  0  0  0  0  0  0  0  0
   19.6280   -6.2185    0.8436 H   0  0  0  0  0  0  0  0  0  0  0  0
   17.3656    2.8345    6.3922 H   0  0  0  0  0  0  0  0  0  0  0  0
  1  2  2  0
  1  4  1  0
  1 24  1  0
  2 10  1  0
  2 25  1  0
  3  7  2  0
  3 11  1  0
  3 26  1  0
  4 13  2  0
  4 27  1  0
  5  8  2  0
  5 12  1  0
  5 28  1  0
  6  9  1  0
  6 12  2  0
  6 29  1  0
  7 15  1  0
  7 30  1  0
  8 14  1  0
  8 31  1  0
  9 14  2  0
  9 32  1  0
 10 16  2  0
 10 33  1  0
 11 19  2  0
 11 34  1  0
 12 43  1  0
 13 16  1  0
 13 42  1  0
 14 20  1  0
 15 17  2  0
 15 21  1  0
 16 23  1  0
 17 19  1  0
 17 23  1  0
 18 20  1  0
 18 21  1  0
 18 22  2  0
 20 35  1  0
 21 36  1  0
 37 42  1  0
 37 44  1  0
 37 45  1  0
 37 46  1  0
 38 42  1  0
 38 47  1  0
 38 48  1  0
 38 49  1  0
 39 43  1  0
 39 50  1  0
 39 51  1  0
 39 52  1  0
 40 43  1  0
 40 53  1  0
 40 54  1  0
 40 55  1  0
 41 43  1  0
 41 56  1  0
 41 57  1  0
 41 58  1  0
 42 59  1  0
M  END
>  <Id>  (27) 
18

>  <IUPAC>  (27) 
1-(4-tert-Butylphenyl)-3-(2-(2-isopropylphenoxy)pyridin-3-yl)urea

>  <Structure>  (27) 
O=C(Nc1c(Oc2c(C(C)C)cccc2)nccc1)Nc1ccc(C(C)(C)C)cc1

>  <R1>  (27) 
4-t-Bu-Ph

>  <R2>  (27) 
2-i-Pr

>  <X>  (27) 
O

>  <hP2Y1Ki_nM>  (27) 
7

>  <SEM_hP2Y1Ki_nM>  (27) 
0.3

$$$$
11b
     RDKit          3D

 50 52  0  0  0  0  0  0  0  0999 V2000
   13.8350    3.9800    9.1610 C   0  0  0  0  0  0  0  0  0  0  0  0
   13.9480    2.7980    9.8870 C   0  0  0  0  0  0  0  0  0  0  0  0
   19.2130   -0.8270   10.8090 C   0  0  0  0  0  0  0  0  0  0  0  0
   14.6920    4.2110    8.0830 C   0  0  0  0  0  0  0  0  0  0  0  0
   18.9740   -1.3450    9.5300 C   0  0  0  0  0  0  0  0  0  0  0  0
   20.2100   -3.4120    4.5740 C   0  0  0  0  0  0  0  0  0  0  0  0
   14.8950    1.8450    9.5120 C   0  0  0  0  0  0  0  0  0  0  0  0
   20.9090   -4.0370    3.5340 C   0  0  0  0  0  0  0  0  0  0  0  0
   19.3200   -3.1410    1.9380 C   0  0  0  0  0  0  0  0  0  0  0  0
   18.6160    0.3800   11.1810 C   0  0  0  0  0  0  0  0  0  0  0  0
   15.6790    3.2890    7.6790 C   0  0  0  0  0  0  0  0  0  0  0  0
   19.0610   -2.6340    4.3200 C   0  0  0  0  0  0  0  0  0  0  0  0
   18.1440   -0.6620    8.6170 C   0  0  0  0  0  0  0  0  0  0  0  0
   15.7890    2.0930    8.4540 C   0  0  0  0  0  0  0  0  0  0  0  0
   20.4510   -3.9250    2.2110 C   0  0  0  0  0  0  0  0  0  0  0  0
   18.6320   -2.5130    2.9870 C   0  0  0  0  0  0  0  0  0  0  0  0
   17.5480    0.5430    9.0210 C   0  0  0  0  0  0  0  0  0  0  0  0
   18.7480   -1.7520    6.5550 C   0  0  0  0  0  0  0  0  0  0  0  0
   17.7940    1.0570   10.2520 N   0  0  0  0  0  0  0  0  0  0  0  0
   18.3500   -1.9640    5.2670 N   0  0  0  0  0  0  0  0  0  0  0  0
   17.8710   -1.0600    7.3410 N   0  0  0  0  0  0  0  0  0  0  0  0
   19.7850   -2.2390    7.0160 O   0  0  0  0  0  0  0  0  0  0  0  0
   16.7350    1.1560    8.0870 O   0  0  0  0  0  0  0  0  0  0  0  0
   13.0913    4.7213    9.4369 H   0  0  0  0  0  0  0  0  0  0  0  0
   13.2901    2.6102   10.7296 H   0  0  0  0  0  0  0  0  0  0  0  0
   19.8483   -1.3617   11.5076 H   0  0  0  0  0  0  0  0  0  0  0  0
   14.5494    5.1564    7.5725 H   0  0  0  0  0  0  0  0  0  0  0  0
   19.4312   -2.2945    9.2732 H   0  0  0  0  0  0  0  0  0  0  0  0
   20.5930   -3.5690    5.5730 H   0  0  0  0  0  0  0  0  0  0  0  0
   14.9431    0.9081   10.0608 H   0  0  0  0  0  0  0  0  0  0  0  0
   21.7958   -4.6247    3.7502 H   0  0  0  0  0  0  0  0  0  0  0  0
   18.9814   -3.0155    0.9138 H   0  0  0  0  0  0  0  0  0  0  0  0
   18.7546    0.8312   12.1527 H   0  0  0  0  0  0  0  0  0  0  0  0
   17.4700   -1.5446    4.9803 H   0  0  0  0  0  0  0  0  0  0  0  0
   17.0109   -0.7318    6.9128 H   0  0  0  0  0  0  0  0  0  0  0  0
   16.6989    2.7674    5.3960 C   0  0  0  0  0  0  0  0  0  0  0  0
   18.1901    3.8093    7.1419 C   0  0  0  0  0  0  0  0  0  0  0  0
   16.5226    5.1613    5.9612 C   0  0  0  0  0  0  0  0  0  0  0  0
   16.7407    3.7422    6.5841 C   0  0  0  0  0  0  0  0  0  0  0  0
   21.0596   -4.5423    1.1580 F   0  0  0  0  0  0  0  0  0  0  0  0
   17.6957   -1.7139    2.7033 F   0  0  0  0  0  0  0  0  0  0  0  0
   15.6806    2.6958    5.0005 H   0  0  0  0  0  0  0  0  0  0  0  0
   17.3491    3.1028    4.5770 H   0  0  0  0  0  0  0  0  0  0  0  0
   17.0329    1.7662    5.6744 H   0  0  0  0  0  0  0  0  0  0  0  0
   18.2623    4.5136    7.9795 H   0  0  0  0  0  0  0  0  0  0  0  0
   18.5616    2.8410    7.4797 H   0  0  0  0  0  0  0  0  0  0  0  0
   18.8978    4.1589    6.3734 H   0  0  0  0  0  0  0  0  0  0  0  0
   16.6312    5.9595    6.7054 H   0  0  0  0  0  0  0  0  0  0  0  0
   17.2703    5.3725    5.1794 H   0  0  0  0  0  0  0  0  0  0  0  0
   15.5424    5.2537    5.4846 H   0  0  0  0  0  0  0  0  0  0  0  0
  1  2  2  0
  1  4  1  0
  1 24  1  0
  2  7  1  0
  2 25  1  0
  3  5  2  0
  3 10  1  0
  3 26  1  0
  4 11  2  0
  4 27  1  0
  5 13  1  0
  5 28  1  0
  6  8  2  0
  6 12  1  0
  6 29  1  0
  7 14  2  0
  7 30  1  0
  8 15  1  0
  8 31  1  0
  9 15  2  0
  9 16  1  0
  9 32  1  0
 10 19  2  0
 10 33  1  0
 11 14  1  0
 11 39  1  0
 12 16  2  0
 12 20  1  0
 13 17  2  0
 13 21  1  0
 14 23  1  0
 15 40  1  0
 16 41  1  0
 17 19  1  0
 17 23  1  0
 18 20  1  0
 18 21  1  0
 18 22  2  0
 20 34  1  0
 21 35  1  0
 36 39  1  0
 36 42  1  0
 36 43  1  0
 36 44  1  0
 37 39  1  0
 37 45  1  0
 37 46  1  0
 37 47  1  0
 38 39  1  0
 38 48  1  0
 38 49  1  0
 38 50  1  0
M  END
>  <Id>  (28) 
11b

>  <IUPAC>  (28) 
1-(2-(2-tert-Butylphenoxy)pyridin-3-yl)-3-(2,4-difluorophenyl)urea

>  <Structure>  (28) 
Fc1c(NC(=O)Nc2c(Oc3c(C(C)(C)C)cccc3)nccc2)ccc(F)c1

>  <R1>  (28) 
2, 4-di-F-Ph

>  <R2>  (28) 
2-t-Bu

>  <X>  (28) 
O

>  <hP2Y1Ki_nM>  (28) 
18

>  <SEM_hP2Y1Ki_nM>  (28) 
4.0

$$$$
11d
     RDKit          3D

 47 49  0  0  0  0  0  0  0  0999 V2000
   13.8350    3.9800    9.1610 C   0  0  0  0  0  0  0  0  0  0  0  0
   13.9480    2.7980    9.8870 C   0  0  0  0  0  0  0  0  0  0  0  0
   19.2130   -0.8270   10.8090 C   0  0  0  0  0  0  0  0  0  0  0  0
   14.6920    4.2110    8.0830 C   0  0  0  0  0  0  0  0  0  0  0  0
   18.9740   -1.3450    9.5300 C   0  0  0  0  0  0  0  0  0  0  0  0
   20.2100   -3.4120    4.5740 C   0  0  0  0  0  0  0  0  0  0  0  0
   14.8950    1.8450    9.5120 C   0  0  0  0  0  0  0  0  0  0  0  0
   20.9090   -4.0370    3.5340 C   0  0  0  0  0  0  0  0  0  0  0  0
   19.3200   -3.1410    1.9380 C   0  0  0  0  0  0  0  0  0  0  0  0
   18.6160    0.3800   11.1810 C   0  0  0  0  0  0  0  0  0  0  0  0
   15.6790    3.2890    7.6790 C   0  0  0  0  0  0  0  0  0  0  0  0
   19.0610   -2.6340    4.3200 C   0  0  0  0  0  0  0  0  0  0  0  0
   18.1440   -0.6620    8.6170 C   0  0  0  0  0  0  0  0  0  0  0  0
   15.7890    2.0930    8.4540 C   0  0  0  0  0  0  0  0  0  0  0  0
   20.4510   -3.9250    2.2110 C   0  0  0  0  0  0  0  0  0  0  0  0
   18.6320   -2.5130    2.9870 C   0  0  0  0  0  0  0  0  0  0  0  0
   17.5480    0.5430    9.0210 C   0  0  0  0  0  0  0  0  0  0  0  0
   18.7480   -1.7520    6.5550 C   0  0  0  0  0  0  0  0  0  0  0  0
   17.7940    1.0570   10.2520 N   0  0  0  0  0  0  0  0  0  0  0  0
   18.3500   -1.9640    5.2670 N   0  0  0  0  0  0  0  0  0  0  0  0
   17.8710   -1.0600    7.3410 N   0  0  0  0  0  0  0  0  0  0  0  0
   19.7850   -2.2390    7.0160 O   0  0  0  0  0  0  0  0  0  0  0  0
   16.7350    1.1560    8.0870 O   0  0  0  0  0  0  0  0  0  0  0  0
   13.0910    4.7214    9.4358 H   0  0  0  0  0  0  0  0  0  0  0  0
   13.2900    2.6102   10.7296 H   0  0  0  0  0  0  0  0  0  0  0  0
   19.8483   -1.3617   11.5076 H   0  0  0  0  0  0  0  0  0  0  0  0
   14.5692    5.1486    7.5449 H   0  0  0  0  0  0  0  0  0  0  0  0
   19.4312   -2.2945    9.2732 H   0  0  0  0  0  0  0  0  0  0  0  0
   20.5929   -3.5691    5.5730 H   0  0  0  0  0  0  0  0  0  0  0  0
   14.9431    0.9081   10.0608 H   0  0  0  0  0  0  0  0  0  0  0  0
   21.7955   -4.6251    3.7507 H   0  0  0  0  0  0  0  0  0  0  0  0
   18.9689   -3.0323    0.9167 H   0  0  0  0  0  0  0  0  0  0  0  0
   18.7546    0.8311   12.1527 H   0  0  0  0  0  0  0  0  0  0  0  0
   17.4700   -1.5448    4.9803 H   0  0  0  0  0  0  0  0  0  0  0  0
   17.0108   -0.7318    6.9128 H   0  0  0  0  0  0  0  0  0  0  0  0
   15.7241    3.6950    5.3830 C   0  0  0  0  0  0  0  0  0  0  0  0
   17.2791    4.7280    6.7800 C   0  0  0  0  0  0  0  0  0  0  0  0
   16.5241    3.5370    6.5550 C   0  0  0  0  0  0  0  0  0  0  0  0
   21.1101   -4.5830    1.1850 F   0  0  0  0  0  0  0  0  0  0  0  0
   17.5051   -1.7569    2.7029 F   0  0  0  0  0  0  0  0  0  0  0  0
   15.1313    2.7950    5.1776 H   0  0  0  0  0  0  0  0  0  0  0  0
   16.3465    3.8739    4.4978 H   0  0  0  0  0  0  0  0  0  0  0  0
   15.0235    4.5354    5.4486 H   0  0  0  0  0  0  0  0  0  0  0  0
   16.6528    5.6176    6.9126 H   0  0  0  0  0  0  0  0  0  0  0  0
   17.9495    4.9387    5.9380 H   0  0  0  0  0  0  0  0  0  0  0  0
   17.9094    4.6401    7.6738 H   0  0  0  0  0  0  0  0  0  0  0  0
   17.2206    2.7075    6.3921 H   0  0  0  0  0  0  0  0  0  0  0  0
  1  2  2  0
  1  4  1  0
  1 24  1  0
  2  7  1  0
  2 25  1  0
  3  5  2  0
  3 10  1  0
  3 26  1  0
  4 11  2  0
  4 27  1  0
  5 13  1  0
  5 28  1  0
  6  8  2  0
  6 12  1  0
  6 29  1  0
  7 14  2  0
  7 30  1  0
  8 15  1  0
  8 31  1  0
  9 15  2  0
  9 16  1  0
  9 32  1  0
 10 19  2  0
 10 33  1  0
 11 14  1  0
 11 38  1  0
 12 16  2  0
 12 20  1  0
 13 17  2  0
 13 21  1  0
 14 23  1  0
 15 39  1  0
 16 40  1  0
 17 19  1  0
 17 23  1  0
 18 20  1  0
 18 21  1  0
 18 22  2  0
 20 34  1  0
 21 35  1  0
 36 38  1  0
 36 41  1  0
 36 42  1  0
 36 43  1  0
 37 38  1  0
 37 44  1  0
 37 45  1  0
 37 46  1  0
 38 47  1  0
M  END
>  <Id>  (29) 
11d

>  <IUPAC>  (29) 
1-(2,4-Difluorophenyl)-3-(2-(2-isopropylphenoxy)pyridin-3-yl)urea

>  <Structure>  (29) 
Fc1c(NC(=O)Nc2c(Oc3c(C(C)C)cccc3)nccc2)ccc(F)c1

>  <R1>  (29) 
2, 4-di-F-Ph

>  <R2>  (29) 
2-i-Pr

>  <X>  (29) 
O

>  <hP2Y1Ki_nM>  (29) 
28

>  <SEM_hP2Y1Ki_nM>  (29) 
2.0

$$$$
6k
     RDKit          3D

 51 54  0  0  0  0  0  0  0  0999 V2000
   13.9480    2.7980    9.8870 C   0  0  0  0  0  0  0  0  0  0  0  0
   19.2130   -0.8270   10.8090 C   0  0  0  0  0  0  0  0  0  0  0  0
   19.3200   -3.1410    1.9380 C   0  0  0  0  0  0  0  0  0  0  0  0
   20.9090   -4.0370    3.5340 C   0  0  0  0  0  0  0  0  0  0  0  0
   13.8350    3.9800    9.1610 C   0  0  0  0  0  0  0  0  0  0  0  0
   18.9740   -1.3450    9.5300 C   0  0  0  0  0  0  0  0  0  0  0  0
   18.6320   -2.5130    2.9870 C   0  0  0  0  0  0  0  0  0  0  0  0
   20.2100   -3.4120    4.5740 C   0  0  0  0  0  0  0  0  0  0  0  0
   14.8950    1.8450    9.5120 C   0  0  0  0  0  0  0  0  0  0  0  0
   15.6790    3.2890    7.6790 C   0  0  0  0  0  0  0  0  0  0  0  0
   18.6160    0.3800   11.1810 C   0  0  0  0  0  0  0  0  0  0  0  0
   14.6920    4.2110    8.0830 C   0  0  0  0  0  0  0  0  0  0  0  0
   19.0610   -2.6340    4.3200 C   0  0  0  0  0  0  0  0  0  0  0  0
   18.1440   -0.6620    8.6170 C   0  0  0  0  0  0  0  0  0  0  0  0
   15.7890    2.0930    8.4540 C   0  0  0  0  0  0  0  0  0  0  0  0
   17.5480    0.5430    9.0210 C   0  0  0  0  0  0  0  0  0  0  0  0
   18.7480   -1.7520    6.5550 C   0  0  0  0  0  0  0  0  0  0  0  0
   17.7940    1.0570   10.2520 N   0  0  0  0  0  0  0  0  0  0  0  0
   18.3500   -1.9640    5.2670 N   0  0  0  0  0  0  0  0  0  0  0  0
   17.8710   -1.0600    7.3410 N   0  0  0  0  0  0  0  0  0  0  0  0
   19.7850   -2.2390    7.0160 O   0  0  0  0  0  0  0  0  0  0  0  0
   16.7350    1.1560    8.0870 O   0  0  0  0  0  0  0  0  0  0  0  0
   13.3056    2.6195   10.7366 H   0  0  0  0  0  0  0  0  0  0  0  0
   19.8524   -1.3553   11.5007 H   0  0  0  0  0  0  0  0  0  0  0  0
   18.9790   -3.0209    0.9203 H   0  0  0  0  0  0  0  0  0  0  0  0
   21.8014   -4.6059    3.7495 H   0  0  0  0  0  0  0  0  0  0  0  0
   13.0894    4.7137    9.4296 H   0  0  0  0  0  0  0  0  0  0  0  0
   19.4311   -2.2793    9.2392 H   0  0  0  0  0  0  0  0  0  0  0  0
   17.7542   -1.9241    2.7656 H   0  0  0  0  0  0  0  0  0  0  0  0
   20.5572   -3.5278    5.5901 H   0  0  0  0  0  0  0  0  0  0  0  0
   14.9427    0.9044   10.0406 H   0  0  0  0  0  0  0  0  0  0  0  0
   16.3182    3.4764    6.8289 H   0  0  0  0  0  0  0  0  0  0  0  0
   18.7806    0.7906   12.1663 H   0  0  0  0  0  0  0  0  0  0  0  0
   17.4517   -1.5921    4.9936 H   0  0  0  0  0  0  0  0  0  0  0  0
   16.9668   -0.8293    6.9546 H   0  0  0  0  0  0  0  0  0  0  0  0
   22.3601   -5.9651   -1.0412 C   0  0  0  0  0  0  0  0  0  0  0  0
   22.2705   -4.5765   -1.0396 C   0  0  0  0  0  0  0  0  0  0  0  0
   21.8258   -6.6951    0.0172 C   0  0  0  0  0  0  0  0  0  0  0  0
   21.6509   -3.9175    0.0228 C   0  0  0  0  0  0  0  0  0  0  0  0
   21.2080   -6.0353    1.0831 C   0  0  0  0  0  0  0  0  0  0  0  0
   21.1169   -4.6335    1.1061 C   0  0  0  0  0  0  0  0  0  0  0  0
   20.4510   -3.9250    2.2110 C   0  0  0  0  0  0  0  0  0  0  0  0
   14.7252    5.5284    7.2850 C   0  0  0  0  0  0  0  0  0  0  0  0
   13.9962    6.5378    7.8333 F   0  0  0  0  0  0  0  0  0  0  0  0
   15.9895    6.0419    7.1412 F   0  0  0  0  0  0  0  0  0  0  0  0
   14.2635    5.3822    6.0085 F   0  0  0  0  0  0  0  0  0  0  0  0
   22.8420   -6.4769   -1.8682 H   0  0  0  0  0  0  0  0  0  0  0  0
   22.6810   -4.0032   -1.8646 H   0  0  0  0  0  0  0  0  0  0  0  0
   21.8870   -7.7792    0.0118 H   0  0  0  0  0  0  0  0  0  0  0  0
   21.5878   -2.8323    0.0014 H   0  0  0  0  0  0  0  0  0  0  0  0
   20.7846   -6.6299    1.8891 H   0  0  0  0  0  0  0  0  0  0  0  0
  1  5  2  0
  1  9  1  0
  1 23  1  0
  2  6  2  0
  2 11  1  0
  2 24  1  0
  3  7  2  0
  3 25  1  0
  3 42  1  0
  4  8  1  0
  4 26  1  0
  4 42  2  0
  5 12  1  0
  5 27  1  0
  6 14  1  0
  6 28  1  0
  7 13  1  0
  7 29  1  0
  8 13  2  0
  8 30  1  0
  9 15  2  0
  9 31  1  0
 10 12  2  0
 10 15  1  0
 10 32  1  0
 11 18  2  0
 11 33  1  0
 12 43  1  0
 13 19  1  0
 14 16  2  0
 14 20  1  0
 15 22  1  0
 16 18  1  0
 16 22  1  0
 17 19  1  0
 17 20  1  0
 17 21  2  0
 19 34  1  0
 20 35  1  0
 36 37  2  0
 36 38  1  0
 36 47  1  0
 37 39  1  0
 37 48  1  0
 38 40  2  0
 38 49  1  0
 39 41  2  0
 39 50  1  0
 40 41  1  0
 40 51  1  0
 41 42  1  0
 43 44  1  0
 43 45  1  0
 43 46  1  0
M  END
>  <Id>  (30) 
6k

>  <IUPAC>  (30) 
1-(Biphenyl-4-yl)-3-(2-(3-(trifluoromethyl)phenoxy)pyridin-3-yl)urea

>  <Structure>  (30) 
FC(F)(F)c1cc(Oc2c(NC(=O)Nc3ccc(-c4ccccc4)cc3)cccn2)ccc1

>  <R1>  (30) 
4-Ph-Ph

>  <R2>  (30) 
3-CF3

>  <X>  (30) 
O

>  <hP2Y1Ki_nM>  (30) 
28

>  <SEM_hP2Y1Ki_nM>  (30) 
4.0

$$$$
